%Mem=256MB 
%NProc=12 

#P HF/6-31G* SCF(Conver=6) NoSymm Test 
   Pop=chelpg IOp(6/33=2) GFInput GFPrint 

MEP - Input generated by R.E.D.-III.x MOLECULE 

0 1 
  C        1.01342466     -0.87993909     -1.68912885
  H        1.14274771      0.09120188     -2.18248103
  C        2.24962296     -1.74878587     -1.97027363
  H        2.38748279     -1.85491010     -3.05079410
  H        2.04571131     -2.75753426     -1.57799423
  C        3.50779337     -1.18842159     -1.33284262
  C        3.43509604     -0.86302675      0.16441533
  C        2.12940075     -0.04834314      0.42085580
  H        2.26508482      0.95725601      0.00000000
  H        1.98982977      0.08256096      1.49935028
  C        0.85604966     -0.65877470     -0.18480205
  H        0.62297713     -1.61998868      0.29676172
  H        0.00000000      0.00000000      0.00000000
  C        4.60898773     -1.00439779     -2.07757803
  H        4.58010571     -1.25783741     -3.13570164
  C        5.90977356     -0.46035906     -1.56136221
  H        6.75033111     -1.02161764     -1.98881801
  C        5.99492120     -0.48760867     -0.02454591
  H        6.14507710     -1.54570815      0.23142326
  C        4.66427710      0.00942269      0.60239203
  H        4.49239598      1.01010346      0.17947451
  C        4.77297990      0.18359847      2.13719646
  H        4.78535736     -0.79627938      2.62495304
  H        3.87697947      0.69345086      2.50954795
  C        6.01522651      0.97079686      2.60216047
  H        5.94350830      2.01152809      2.25599805
  H        6.01745164      1.00390366      3.69780716
  C        7.31625317      0.35207783      2.05552429
  C        7.18196338      0.33031844      0.50543488
  H        6.98617847      1.37160435      0.21673465
  C        8.59644520      0.00000000     -0.00000000
  H        8.76057504      0.36535442     -1.01758568
  H        8.76327122     -1.08467433     -0.01609530
  C        9.52768441      0.69040319      1.03776585
  H       10.26325348     -0.01870611      1.43084163
  H       10.10073224      1.50902037      0.58913447
  C        8.60434591      1.23705699      2.17219753
  H        8.27633632      2.23581402      1.84674762
  C        7.52680154     -1.06147540      2.64532764
  H        6.76626044     -1.76870393      2.30397751
  H        8.49948758     -1.48107501      2.37575996
  H        7.47072453     -1.03643720      3.73761526
  C        9.35749502      1.50638451      3.50765097
  H       10.19590016      2.15268306      3.19907822
  C        9.99520504      0.28961937      4.20807388
  H        9.25527258     -0.30419674      4.75340056
  H       10.74561221      0.61940224      4.93353193
  H       10.50404045     -0.37579272      3.50472604
  C        3.37601494     -2.20219048      0.94962233
  H        3.12516711     -2.03575470      2.00138413
  H        2.61930432     -2.87682386      0.54222182
  H        4.33378609     -2.72988592      0.90564096
  O        6.09294165      0.92482360     -1.96526413
  O        6.26700640      0.94376196     -3.40983570
  H        5.42176676      1.33075223     -3.69231031
  O       -0.16424521     -1.42300269     -2.29136890
  H       -0.35626768     -2.27812924     -1.88142693
  C        8.51739003      2.34202658      4.50046804
  H        7.99162975      3.13014586      3.94287703
  H        7.73773991      1.70665329      4.93920624
  C        9.33178345      3.00670664      5.62321889
  H        9.76264790      2.24312530      6.28182561
  H       10.18676281      3.53045407      5.17226134
  C        8.53978551      4.02640856      6.46209209
  H        8.18196064      4.82377485      5.79466708
  H        9.22906092      4.51035683      7.16997156
  C        7.33494440      3.48326961      7.25961531
  H        6.63630999      3.01538594      6.55113894
  C        7.74468098      2.41939991      8.29041070
  H        8.46328779      2.83168579      9.01075168
  H        6.87446524      2.06642176      8.85554749
  H        8.20855095      1.54589104      7.82086062
  C        6.58870692      4.63886943      7.94555351
  H        7.23656259      5.14600697      8.67215425
  H        5.70467931      4.27854835      8.48404888
  H        6.25609814      5.38769915      7.21750815



