%Mem=256MB 
%NProc=12 

#P HF/6-31G* SCF(Conver=6) NoSymm Test 
   Pop=chelpg IOp(6/33=2) GFInput GFPrint 

MEP - Input generated by R.E.D.-III.x MOLECULE 

0 1 
  C       -0.97506207      1.98040872      1.69873964
  H       -0.98573230      0.99678616      2.18320113
  C        0.37090507      2.66265852      1.98523343
  H        0.52396328      2.73744335      3.06624494
  H        0.30892402      3.69446118      1.60315061
  C        1.54231451      1.94600724      1.33884664
  C        1.42315910      1.62964284     -0.15750303
  C        0.01177658      1.01622443     -0.41632010
  H        0.00000000      0.00000000      0.00000000
  H       -0.14522682      0.91301302     -1.49547603
  C       -1.16047937      1.80017164      0.19264300
  H       -1.24985285      2.79011462     -0.27920478
  H       -2.10280985      1.27478201      0.00000000
  C        2.61600946      1.62984637      2.07691488
  H        2.61947728      1.85425383      3.14245842
  C        3.85408183      0.96688643      1.55591552
  H        4.73501050      1.52694248      1.90244283
  C        3.90158425      0.88502975      0.01646886
  H        4.20926611      1.88988621     -0.30912139
  C        2.50381380      0.57456272     -0.58122796
  H        2.19014289     -0.37302669     -0.12559184
  C        2.57363935      0.34474121     -2.10870063
  H        2.74120837      1.29503910     -2.62681270
  H        1.60668291     -0.02603404     -2.46745811
  C        3.66888661     -0.64889361     -2.54712672
  H        3.43451559     -1.65006844     -2.15728939
  H        3.64683045     -0.72795353     -3.63842167
  C        5.06119567     -0.23187880     -2.03022996
  C        4.94304539     -0.12604937     -0.48200998
  H        4.59064141     -1.11583935     -0.15444161
  C        6.39522363     -0.00000000      0.00000000
  H        6.51385864     -0.31617742      1.03971527
  H        6.73534713      1.04171981     -0.05925635
  C        7.18605375     -0.90058251     -0.98788103
  H        8.05267114     -0.36711636     -1.39616726
  H        7.58117047     -1.78724568     -0.48318551
  C        6.20227735     -1.30323075     -2.14011253
  H        5.74083779     -2.26739956     -1.87238301
  C        5.51321130      1.09410751     -2.68505752
  H        4.84880895      1.92767373     -2.44396272
  H        6.52066593      1.38343394     -2.37136303
  H        5.52754264      0.99968274     -3.77592192
  C        6.93059606     -1.51855442     -3.49309219
  H        7.44831274     -0.58126389     -3.74079884
  C        5.97784454     -1.85517554     -4.65271993
  H        5.37767673     -2.74495149     -4.42361883
  H        6.53150320     -2.05943814     -5.57410689
  H        5.28958898     -1.03603689     -4.87144422
  C        1.56829383      2.95601431     -0.95163945
  H        1.31133635      2.81911990     -2.00648058
  H        0.90967549      3.73474786     -0.55870269
  H        2.59081023      3.34246912     -0.89594573
  O        4.11155445     -0.27133253      2.26192095
  O        2.96578934     -1.17377655      2.08332110
  H        3.44857342     -2.00465576      1.94683920
  O       -2.06381837      2.68230921      2.30568807
  H       -2.12401245      3.56252666      1.90851585
  C        8.00360145     -2.62704661     -3.33798125
  H        8.64376386     -2.39029663     -2.48017241
  H        7.48893689     -3.56563097     -3.08286481
  C        8.92371442     -2.88784369     -4.54758574
  H        9.57316371     -3.73240532     -4.28477209
  H        8.33274000     -3.22419023     -5.40743880
  C        9.79188158     -1.68284847     -4.94581739
  H       10.31329460     -1.31510001     -4.04967525
  H        9.14332059     -0.86066134     -5.27671884
  C       10.84543755     -1.93188376     -6.05145201
  H       11.34853698     -0.96647396     -6.21008928
  C       11.92848090     -2.93790351     -5.62750347
  H       11.52118736     -3.94878422     -5.51130213
  H       12.72406973     -2.99224477     -6.37937427
  H       12.38877682     -2.65077324     -4.67475052
  C       10.21139518     -2.33580630     -7.39299520
  H        9.73912083     -3.32329634     -7.33568658
  H       10.96864578     -2.38158561     -8.18397853
  H        9.44574233     -1.61594956     -7.70568632



