%Mem=256MB 
%NProc=12 

#P HF/6-31G* SCF(Conver=6) NoSymm Test 
   Pop=chelpg IOp(6/33=2) GFInput GFPrint 

MEP - Input generated by R.E.D.-III.x MOLECULE 

0 1 
  C        7.51729987      2.15184601     -0.05625398
  H        7.41607248      2.06898940      1.03284731
  C        6.76407977      0.98557919     -0.71560712
  H        7.15547524      0.03497864     -0.34013671
  H        6.98407603      1.01282475     -1.79445268
  C        5.26532886      1.06262201     -0.48954011
  C        4.58196464      2.38803038     -0.84900867
  C        5.41795813      3.54895727     -0.22665157
  H        5.27100669      3.53135296      0.86185672
  H        5.02329122      4.50844377     -0.57786793
  C        6.92635488      3.48578142     -0.51246142
  H        7.12039781      3.61547462     -1.58747834
  H        7.43981509      4.30717637      0.00000000
  C        4.60785415      0.00000000     -0.00000000
  H        5.16533672     -0.90526458      0.23329932
  C        3.13038084     -0.04485500      0.26374501
  H        2.71855583     -1.01037947     -0.05630122
  C        2.36965189      1.09970915     -0.42991389
  H        2.35519960      0.82536414     -1.49394793
  C        3.12997590      2.44212761     -0.25517761
  H        3.25063156      2.57576070      0.82990440
  C        2.30612396      3.64914405     -0.76720075
  H        2.28994160      3.65371675     -1.86170604
  H        2.80215523      4.58029353     -0.47001928
  C        0.84943326      3.68562470     -0.26163279
  H        0.84088535      3.84335627      0.82611349
  H        0.34603816      4.55075565     -0.70830440
  C        0.10516486      2.37465852     -0.58060501
  C        0.92480598      1.22644576      0.07559730
  H        0.99735455      1.49307845      1.13846279
  C        0.00000000      0.00000000      0.00000000
  H        0.23820785     -0.73756164      0.77144575
  H        0.09720998     -0.50475125     -0.96973035
  C       -1.42400060      0.60290266      0.17232252
  H       -2.08578441      0.26995318     -0.63348034
  H       -1.89273810      0.27792126      1.10748052
  C       -1.25575060      2.15537060      0.16475715
  H       -1.04405083      2.44646930      1.20473065
  C       -0.03518954      2.19604209     -2.10977416
  H        0.93091662      2.04542580     -2.59874462
  H       -0.66363743      1.34021657     -2.36957958
  H       -0.48581275      3.08448296     -2.56206989
  C       -2.56631291      2.92247290     -0.17936126
  H       -3.29209180      2.52106589      0.54722251
  C       -3.17651260      2.66957099     -1.57301238
  H       -2.65182721      3.22331289     -2.35744418
  H       -4.22317150      2.98878570     -1.59495254
  H       -3.16304639      1.61057747     -1.84626596
  C        4.57177122      2.52466011     -2.39647337
  H        4.28065760      3.53316278     -2.70475280
  H        5.55716133      2.32954927     -2.82628401
  H        3.87605815      1.81338259     -2.85235838
  O        2.85073848      0.06951591      1.68645531
  O        3.34354029     -1.13850472      2.33106896
  H        4.11653574     -0.79158378      2.80653339
  O        8.92657017      2.06819902     -0.28303151
  H        9.09407371      2.15969694     -1.23157686
  C       -2.45602827      4.43690736      0.11586424
  H       -1.87094229      4.57111728      1.03418275
  H       -1.88418350      4.92659587     -0.68494129
  C       -3.80532279      5.15746609      0.27132968
  H       -4.40193879      5.01940644     -0.63866196
  H       -4.37728996      4.68062020      1.07910086
  C       -3.69405781      6.67207514      0.52788683
  H       -4.70648229      7.10260752      0.52347171
  H       -3.16750626      7.13136337     -0.32141414
  C       -2.99236960      7.11220016      1.83060563
  H       -1.97153594      6.70420402      1.82848259
  C       -2.87382057      8.64413628      1.87614796
  H       -3.86618390      9.11315767      1.88635189
  H       -2.34075539      8.97590940      2.77449012
  H       -2.33325730      9.02927989      1.00378357
  C       -3.70621698      6.58928806      3.08722223
  H       -4.74248782      6.94990497      3.12480985
  H       -3.20147080      6.93526618      3.99642757
  H       -3.73313178      5.49536908      3.12221433



