%Mem=256MB 
%NProc=12 

#P HF/6-31G* SCF(Conver=6) NoSymm Test 
   Pop=chelpg IOp(6/33=2) GFInput GFPrint 

MEP - Input generated by R.E.D.-III.x MOLECULE 

0 1 
  C       -0.96317922      2.00305574      1.68950215
  H       -0.98076789      1.02333538      2.18253158
  C        0.38918063      2.67686551      1.97111902
  H        0.54120948      2.76077894      3.05169034
  H        0.33876437      3.70491190      1.57914062
  C        1.54935554      1.93482055      1.33342469
  C        1.42889403      1.62490448     -0.16405089
  C        0.01615574      1.01463838     -0.42069128
  H        0.00000000      0.00000000      0.00000000
  H       -0.14128856      0.90616664     -1.49920254
  C       -1.15170494      1.80841688      0.18505911
  H       -1.23842958      2.79380524     -0.29623919
  H       -2.09660691      1.28508135      0.00000000
  C        2.61073587      1.58794611      2.07788911
  H        2.62012457      1.84210625      3.13620007
  C        3.81599987      0.85675149      1.56098650
  H        4.73079999      1.28685884      1.98811555
  C        3.90374415      0.87123421      0.02410031
  H        4.20997655      1.89513180     -0.23193345
  C        2.51379228      0.57871760     -0.60263548
  H        2.19442139     -0.38534387     -0.18027897
  C        2.59555097      0.39134007     -2.13735511
  H        2.75445749      1.35877063     -2.62434986
  H        1.63350223      0.02155228     -2.51039805
  C        3.70592415     -0.57266807     -2.60287038
  H        3.47924853     -1.59116343     -2.25732453
  H        3.70220852     -0.60498901     -3.69839930
  C        5.08530628     -0.15635770     -2.05637024
  C        4.95535803     -0.11480313     -0.50614015
  H        4.60597170     -1.11519005     -0.21779376
  C        6.40304481     -0.00000000     -0.00000000
  H        6.50995937     -0.38497866      1.01796616
  H        6.73083429      1.04732614      0.01531936
  C        7.22020274     -0.82325205     -1.03657770
  H        8.05509741     -0.23371005     -1.42885775
  H        7.66239000     -1.71894126     -0.58706763
  C        6.22691357     -1.22428256     -2.17288204
  H        5.75254353     -2.16324726     -1.84962741
  C        5.50584231      1.20948239     -2.64611178
  H        4.86173399      2.02334822     -2.30279482
  H        6.53136242      1.47693807     -2.37847004
  H        5.44455126      1.19392731     -3.73830555
  C        6.93601690     -1.60203811     -3.50688448
  H        7.66988369     -2.35880446     -3.18942366
  C        7.74682583     -0.49371158     -4.20736626
  H        7.10453146      0.19946952     -4.75923773
  H        8.44504998     -0.93126587     -4.92825943
  H        8.34394414      0.09283788     -3.50318629
  C        1.57063132      2.95830284     -0.94843686
  H        1.29665046      2.83209334     -2.00002814
  H        0.92399970      3.73836901     -0.53965666
  H        2.59674978      3.33642809     -0.90519930
  O        3.79149929     -0.54032834      1.96474124
  O        3.96146308     -0.58496548      3.40926764
  H        3.06858098     -0.84334698      3.69204720
  O       -2.04631358      2.71615713      2.29184021
  H       -2.10810018      3.59048972      1.88209591
  C        5.97731910     -2.29879010     -4.49976456
  H        5.35584847     -3.01485469     -3.94632847
  H        5.28307325     -1.55345130     -4.90839126
  C        6.63970113     -3.02185653     -5.69061988
  H        5.84131879     -3.42611029     -6.32600363
  H        7.16491344     -2.28993050     -6.31729668
  C        7.62945736     -4.14865549     -5.33825281
  H        8.49238751     -3.72307937     -4.80832526
  H        8.03151497     -4.55802593     -6.27692424
  C        7.07381502     -5.31966164     -4.50036471
  H        6.68586730     -4.91326466     -3.55507360
  C        5.92079719     -6.05141545     -5.20577212
  H        6.25041485     -6.45686917     -6.17131119
  H        5.56074132     -6.89029725     -4.59936990
  H        5.06738416     -5.39239172     -5.39528878
  C        8.20152839     -6.30337740     -4.14902277
  H        8.62774302     -6.74979605     -5.05670120
  H        7.83500459     -7.12081240     -3.51764604
  H        9.01517821     -5.80327118     -3.61111247



