%Mem=256MB 
%NProc=12 

#P HF/6-31G* SCF(Conver=6) NoSymm Test 
   Pop=chelpg IOp(6/33=2) GFInput GFPrint 

MEP - Input generated by R.E.D.-III.x MOLECULE 

0 1 
  C       -0.96296327      2.00126715      1.69124217
  H       -0.98139363      1.02082511      2.18282877
  C        0.38952669      2.67401103      1.97453676
  H        0.54117806      2.75591546      3.05531420
  H        0.33954090      3.70282460      1.58448140
  C        1.54989050      1.93290000      1.33604415
  C        1.42976085      1.62454252     -0.16177345
  C        0.01691676      1.01506373     -0.41962734
  H        0.00000000      0.00000000      0.00000000
  H       -0.14033193      0.90778250     -1.49829043
  C       -1.15071957      1.80892769      0.18643177
  H       -1.23613365      2.79504269     -0.29358848
  H       -2.09594000      1.28666778      0.00000000
  C        2.61131341      1.58550794      2.08022298
  H        2.62038688      1.83848387      3.13881906
  C        3.81692053      0.85511645      1.56308801
  H        4.73154796      1.28582228      1.98996681
  C        3.90455113      0.86982184      0.02617430
  H        4.21122709      1.89367967     -0.22922624
  C        2.51441628      0.57841569     -0.60081926
  H        2.19455590     -0.38577066     -0.17907644
  C        2.59580117      0.39154344     -2.13575520
  H        2.75633159      1.35854294     -2.62293131
  H        1.63326831      0.02297253     -2.50866061
  C        3.70477907     -0.57486711     -2.59939951
  H        3.47513912     -1.59077411     -2.24929824
  H        3.70087184     -0.61032444     -3.69522688
  C        5.08491770     -0.15898161     -2.05468511
  C        4.95606267     -0.11633172     -0.50429920
  H        4.60731256     -1.11651717     -0.21458219
  C        6.40438604     -0.00000000     -0.00000000
  H        6.51279349     -0.38472846      1.01791288
  H        6.73064646      1.04783647      0.01485075
  C        7.22212491     -0.82200027     -1.03740682
  H        8.05374975     -0.22998482     -1.43272386
  H        7.66864444     -1.71546481     -0.58774644
  C        6.22581545     -1.22893215     -2.17015299
  H        5.75512969     -2.16243588     -1.83347320
  C        5.50273142      1.20841304     -2.64345119
  H        4.86401688      2.02228988     -2.29032392
  H        6.53121836      1.47265571     -2.38469009
  H        5.43040817      1.19845592     -3.73498218
  C        6.93959740     -1.60412465     -3.50115947
  H        7.69236343     -2.34616577     -3.18762758
  C        7.72552119     -0.48222153     -4.20987415
  H        7.06700337      0.20035363     -4.75494887
  H        8.41204772     -0.92162824     -4.94248369
  H        8.32753059      0.11491749     -3.51894625
  C        1.57236418      2.95864075     -0.94479910
  H        1.30030519      2.83332696     -1.99700111
  H        0.92472315      3.73819259     -0.53655148
  H        2.59828453      3.33696606     -0.89927284
  O        3.79343242     -0.54182192      1.96730293
  O        3.96793197     -0.58573882      3.41139848
  H        3.07673513     -0.84681061      3.69695049
  O       -2.04600990      2.71415015      2.29399970
  H       -2.10665262      3.58929259      1.88581154
  C        6.04301695     -2.32315872     -4.53725422
  H        5.24152688     -1.64850830     -4.86658804
  H        6.65754816     -2.50744692     -5.43030118
  C        5.43685398     -3.66467267     -4.09621030
  H        6.24243217     -4.30800650     -3.71673592
  H        4.74606600     -3.50875451     -3.26033391
  C        4.69999098     -4.37298713     -5.24482691
  H        5.40520710     -4.52210566     -6.07531035
  H        3.91964781     -3.69986791     -5.62891368
  C        4.04560380     -5.73462407     -4.91357090
  H        3.58093341     -6.08064278     -5.84881257
  C        5.07361837     -6.80050696     -4.49926084
  H        5.53989318     -6.56016357     -3.53686882
  H        4.59708371     -7.78195614     -4.39487329
  H        5.87275403     -6.89493353     -5.24397199
  C        2.92247077     -5.61534829     -3.86996537
  H        3.31259287     -5.33193447     -2.88562542
  H        2.39878532     -6.57068302     -3.75023526
  H        2.18141619     -4.86328424     -4.16561485



