%Mem=256MB 
%NProc=12 

#P HF/6-31G* SCF(Conver=6) NoSymm Test 
   Pop=chelpg IOp(6/33=2) GFInput GFPrint 

MEP - Input generated by R.E.D.-III.x MOLECULE 

0 1 
  C       -0.93064803      2.00207965      1.71612658
  H       -0.98395068      1.01642244      2.19385003
  C        0.43715492      2.63110244      2.02796970
  H        0.57651859      2.69015436      3.11183710
  H        0.42307594      3.66674177      1.65366781
  C        1.58038433      1.86444038      1.39155128
  C        1.47622069      1.58603514     -0.11213036
  C        0.05012016      1.02187826     -0.39948117
  H        0.00000000      0.00000000      0.00000000
  H       -0.09531344      0.94063366     -1.48199092
  C       -1.10301254      1.83733954      0.20621510
  H       -1.15626320      2.83282835     -0.25919659
  H       -2.05944314      1.34367343      0.00000000
  C        2.61410922      1.45870056      2.14447669
  H        2.60803467      1.65693788      3.21480380
  C        3.78386577      0.67500202      1.62713958
  H        4.70759844      0.98687712      2.12676081
  C        3.92749290      0.77800536      0.09642278
  H        4.23854149      1.81500545     -0.09843268
  C        2.53913191      0.51690486     -0.54960756
  H        2.20091121     -0.43944292     -0.12429622
  C        2.60835432      0.31881943     -2.08149241
  H        2.74956817      1.28130921     -2.58337641
  H        1.64751895     -0.06826849     -2.43993120
  C        3.72493468     -0.63599969     -2.54585298
  H        3.52035475     -1.65187736     -2.17887407
  H        3.70128853     -0.68820013     -3.63863430
  C        5.10316889     -0.19033981     -2.01987052
  C        4.99707619     -0.16979948     -0.46636962
  H        4.69037186     -1.18638656     -0.18170712
  C        6.45076355     -0.00000000     -0.00000000
  H        6.59978438     -0.35266459      1.02212748
  H        6.74482724      1.05729731     -0.02655724
  C        7.26166562     -0.82941618     -1.03211619
  H        8.11165223     -0.25409509     -1.41888940
  H        7.68146094     -1.72687627     -0.56830508
  C        6.28273143     -1.20853988     -2.19643485
  H        5.86198279     -2.20232110     -1.97606548
  C        5.49617347      1.18594529     -2.60641778
  H        4.82218952      1.98475752     -2.28650516
  H        6.50746591      1.48160990     -2.31219528
  H        5.47088354      1.16227432     -3.70106353
  C        7.00428733     -1.32241131     -3.56508755
  H        7.49567483     -0.35808779     -3.76666634
  C        6.05131445     -1.62298634     -4.73571390
  H        5.46573437     -2.53036424     -4.54107559
  H        6.60460503     -1.77968125     -5.66649910
  H        5.34949007     -0.80606938     -4.91775807
  C        1.66785204      2.92839779     -0.87010413
  H        1.41573771      2.82546626     -1.92963118
  H        1.02966697      3.71695363     -0.46408966
  H        2.70107735      3.28146442     -0.79731670
  O        3.49940327     -0.68174384      2.08319053
  O        4.75811245     -1.38628535      2.34240714
  H        4.62881627     -1.60777083      3.27864632
  O       -2.00015811      2.73941628      2.31396948
  H       -2.03500828      3.61769939      1.90954392
  C        8.11926763     -2.39568017     -3.49170256
  H        8.70575870     -2.24730706     -2.57795954
  H        7.64871223     -3.38605204     -3.39210809
  C        9.09912794     -2.41552313     -4.67674365
  H        8.56428711     -2.64076992     -5.60632232
  H        9.52468146     -1.41014750     -4.79940535
  C       10.22851515     -3.43951080     -4.47680238
  H        9.77900531     -4.43078214     -4.31962438
  H       10.76080422     -3.19847913     -3.54525626
  C       11.26973175     -3.55457979     -5.61454036
  H       11.98890790     -4.32043775     -5.28803371
  C       10.65477706     -4.04840714     -6.93472802
  H        9.96849879     -3.30894230     -7.36336285
  H       11.43487114     -4.23989013     -7.68045585
  H       10.09505415     -4.98004264     -6.79031042
  C       12.06159920     -2.25362740     -5.82688063
  H       11.42401799     -1.45116707     -6.21550637
  H       12.87297115     -2.40426066     -6.54819683
  H       12.50889976     -1.90120431     -4.88992613



