%Mem=256MB 
%NProc=12 

#P HF/6-31G* SCF(Conver=6) NoSymm Test 
   Pop=chelpg IOp(6/33=2) GFInput GFPrint 

MEP - Input generated by R.E.D.-III.x MOLECULE 

0 1 
  C        1.01059012     -0.86511947     -1.69873964
  H        1.14595759      0.10920226     -2.18320113
  C        2.24045296     -1.73949338     -1.98523343
  H        2.38072332     -1.83615678     -3.06624494
  H        2.02609062     -2.75068434     -1.60315061
  C        3.50521546     -1.20454949     -1.33884664
  C        3.43431091     -0.87400904      0.15750303
  C        2.12954542     -0.05800059      0.41632010
  H        2.26865525      0.94872640      0.00000000
  H        1.98959059      0.06736012      1.49547603
  C        0.85396249     -0.65937021     -0.19264300
  H        0.61872066     -1.62510102      0.27920478
  H        0.00000000      0.00000000      0.00000000
  C        4.61393224     -1.05116873     -2.07691488
  H        4.58407101     -1.27360757     -3.14245842
  C        5.93665497     -0.57921148     -1.55591552
  H        6.72475232     -1.26375560     -1.90244283
  C        5.99577515     -0.50530748     -0.01646886
  H        6.15098286     -1.54468961      0.30912139
  C        4.65952852      0.00908239      0.58122796
  H        4.48990251      0.99271959      0.12559184
  C        4.76267529      0.22600237      2.10870063
  H        4.78741422     -0.73863925      2.62681270
  H        3.86142241      0.73612223      2.46745811
  C        5.99320863      1.04616358      2.54712672
  H        5.90995441      2.07102921      2.15728939
  H        5.98312499      1.12762072      3.63842167
  C        7.30824802      0.42721507      2.03022996
  C        7.17570535      0.34008414      0.48200998
  H        6.97403528      1.37120099      0.15444161
  C        8.59311597      0.00000000     -0.00000000
  H        8.75734297      0.29507952     -1.03971527
  H        8.77493771     -1.08065028      0.05925635
  C        9.50879630      0.77329857      0.98788103
  H       10.28668532      0.11717319      1.39616726
  H       10.03107685      1.59153559      0.48318551
  C        8.59563790      1.31743398      2.14011253
  H        8.28233783      2.33938850      1.87238301
  C        7.55855309     -0.95115542      2.68505752
  H        6.77784343     -1.67693469      2.44396272
  H        8.51193892     -1.38673556      2.37136303
  H        7.58673369     -0.85990149      3.77592192
  C        9.34784089      1.42232959      3.49309219
  H        9.72078274      0.41860728      3.74079884
  C        8.45556900      1.89656595      4.65271993
  H        7.99403959      2.86553099      4.42361883
  H        9.03340365      2.01643357      5.57410689
  H        7.65341038      1.18859321      4.87144422
  C        3.38107357     -2.20723488      0.95163945
  H        3.14726749     -2.03373577      2.00648058
  H        2.61421830     -2.87964626      0.55870269
  H        4.33494559     -2.74110309      0.89594573
  O        6.37496747      0.60711078     -2.26192095
  O        5.37575707      1.66954264     -2.08332110
  H        5.97645944      2.41960756     -1.94683920
  O       -0.17024552     -1.39773732     -2.30568807
  H       -0.36035312     -2.25928546     -1.90851585
  C       10.57341745      2.35937685      3.33798125
  H       11.17137483      2.03027892      2.48017241
  H       10.20368590      3.36392589      3.08286481
  C       11.52203846      2.48079019      4.54758574
  H       12.28959167      3.21966148      4.28477209
  H       10.98749989      2.90108565      5.40743880
  C       12.20183929      1.16033628      4.94581739
  H       12.66292770      0.71930573      4.04967525
  H       11.43848378      0.44346013      5.27671884
  C       13.28068189      1.25032180      6.05145201
  H       13.63499675      0.22095982      6.21008928
  C       14.50098364      2.08454135      5.62750347
  H       14.24816015      3.14465838      5.51130213
  H       15.29583080      2.02025635      6.37937427
  H       14.91359086      1.73230363      4.67475052
  C       12.71357676      1.74383465      7.39299520
  H       12.39302149      2.79045967      7.33568658
  H       13.46923974      1.67676987      8.18397853
  H       11.84960565      1.14552709      7.70568632



