%Mem=256MB 
%NProc=12 

#P HF/6-31G* SCF(Conver=6) NoSymm Test 
   Pop=chelpg IOp(6/33=2) GFInput GFPrint 

MEP - Input generated by R.E.D.-III.x MOLECULE 

0 1 
  C        1.75835859     -1.24885064      0.05625398
  H        1.88320386     -1.20978834     -1.03284731
  C        3.14666321     -1.26021296      0.71560712
  H        3.72592882     -2.10949688      0.34013671
  H        3.00303496     -1.42906674      1.79445268
  C        3.90568028      0.03442328      0.48954011
  C        3.17364015      1.33358118      0.84900867
  C        1.74432292      1.27284693      0.22665157
  H        1.83976551      1.38596347     -0.86185672
  H        1.15942978      2.12974618      0.57786793
  C        0.96841977     -0.02223076      0.51246142
  H        0.75344780     -0.11311552      1.58747834
  H        0.00000000      0.00000000      0.00000000
  C        5.15478138      0.00000000      0.00000000
  H        5.60491984     -0.96315427     -0.23329932
  C        6.00396290      1.20988847     -0.26374501
  H        7.03697597      1.02355183      0.05630122
  C        5.46553367      2.47433680      0.42991389
  H        5.70270778      2.33569158      1.49394793
  C        3.92613940      2.57653842      0.25517761
  H        3.74819325      2.54913832     -0.82990440
  C        3.37020579      3.92804075      0.76720075
  H        3.37527533      3.94407440      1.86170604
  H        2.31965373      4.02513212      0.47001928
  C        4.14000809      5.16524851      0.26163279
  H        4.01290855      5.25904628     -0.82611349
  H        3.69368920      6.06116013      0.70830440
  C        5.64430110      5.06691073      0.58060501
  C        6.15341352      3.75123271     -0.07559730
  H        5.89076636      3.83709743     -1.13846279
  C        7.68626856      3.85018084      0.00000000
  H        8.17168444      3.24593621     -0.77144575
  H        8.05461741      3.49165228      0.96973035
  C        7.96482663      5.37125767     -0.17232252
  H        8.60660324      5.74130628      0.63348034
  H        8.49388855      5.58438028     -1.10748052
  C        6.57519823      6.08357617     -0.16475715
  H        6.21566040      6.06661171     -1.20473065
  C        5.87065612      5.08605731      2.10977416
  H        5.46574196      4.19606242      2.59874462
  H        6.93101755      5.14099105      2.36957958
  H        5.37586808      5.95068049      2.56206989
  C        6.65423482      7.60007633      0.17936126
  H        7.38837038      7.98598770     -0.54722251
  C        7.20078658      7.97099979      1.57301238
  H        6.44984250      7.83680650      2.35744418
  H        7.50907959      9.02092756      1.59495254
  H        8.07825077      7.37795240      1.84626596
  C        3.06507668      1.41716085      2.39647337
  H        2.38233648      2.21446292      2.70475280
  H        2.68674647      0.48660824      2.82628401
  H        4.04161275      1.60771185      2.85235838
  O        6.06202950      1.50638269     -1.68645531
  O        6.80067623      0.43094396     -2.33106896
  H        6.08612748     -0.02435395     -2.80653339
  O        1.05401910     -2.47234786      0.28303151
  H        0.88554228     -2.56204105      1.23157686
  C        5.32823133      8.33993386     -0.11586424
  H        4.89465205      7.92478702     -1.03418275
  H        4.60489962      8.13114566      0.68494129
  C        5.46743720      9.86322711     -0.27132968
  H        5.91056763     10.28589310      0.63866196
  H        6.18010527     10.07917313     -1.07910086
  C        4.14074925     10.60236142     -0.52788683
  H        4.33722076     11.68484025     -0.52347171
  H        3.46770250     10.41471737      0.32141414
  C        3.38749719     10.25785059     -1.83060563
  H        3.16757521      9.18072640     -1.82848259
  C        2.04232951     11.00041781     -1.87614796
  H        2.19561949     12.08727945     -1.88635189
  H        1.47225196     10.73727625     -2.77449012
  H        1.42353789     10.76033204     -1.00378357
  C        4.21660365     10.56703924     -3.08722223
  H        4.48459521     11.63103282     -3.12480985
  H        3.65021489     10.33536418     -3.99642757
  H        5.14543521      9.98854545     -3.12221433



