%Mem=256MB 
%NProc=12 

#P HF/6-31G* SCF(Conver=6) NoSymm Test 
   Pop=chelpg IOp(6/33=2) GFInput GFPrint 

MEP - Input generated by R.E.D.-III.x MOLECULE 

0 1 
  C        7.50865513      2.15141966     -0.05221926
  H        7.40510273      2.07046911      1.03679719
  C        6.75671311      0.98411606     -0.71114535
  H        7.14690303      0.03406907     -0.33304089
  H        6.97914349      1.00928138     -1.78958296
  C        5.25748933      1.06199566     -0.48857279
  C        4.57511445      2.38693421     -0.85113745
  C        5.41010925      3.54903675     -0.22973286
  H        5.26074428      3.53385068      0.85847629
  H        5.01634338      4.50788487     -0.58379837
  C        6.91909972      3.48472084     -0.51209590
  H        7.11563173      3.61235556     -1.58691862
  H        7.43178304      4.30682875      0.00000000
  C        4.59830645      0.00000000      0.00000000
  H        5.15469434     -0.90544436      0.23518736
  C        3.12026292     -0.04406175      0.26055922
  H        2.70871268     -1.00928764     -0.06071531
  C        2.36106769      1.10164488     -0.43318157
  H        2.34455636      0.82821563     -1.49765058
  C        3.12255709      2.44207019     -0.25902236
  H        3.24179353      2.57777796      0.82594770
  C        2.29750616      3.64496026     -0.77487722
  H        2.28431295      3.64702426     -1.86955708
  H        2.78971931      4.57858326     -0.47894079
  C        0.83894999      3.68077163     -0.27451049
  H        0.82586321      3.83627673      0.81368190
  H        0.34500815      4.55031796     -0.71919903
  C        0.09209595      2.36861910     -0.59262757
  C        0.91539007      1.22902427      0.07089843
  H        0.98255760      1.50254053      1.13288344
  C        0.00000000      0.00000000      0.00000000
  H        0.25048347     -0.74200362      0.76320550
  H        0.08648948     -0.49758601     -0.97446295
  C       -1.42085086      0.59550145      0.19742967
  H       -2.10756643      0.23659349     -0.57873402
  H       -1.84731749      0.28336689      1.15508522
  C       -1.28607824      2.15597595      0.12698584
  H       -1.15305556      2.53096651      1.15414327
  C       -0.06675699      2.17965344     -2.11870477
  H        0.89471118      2.10261886     -2.63305020
  H       -0.63453216      1.27621284     -2.36092214
  H       -0.60053261      3.02721493     -2.56121171
  C       -2.56019273      2.83864246     -0.43564747
  H       -2.74847801      2.42399634     -1.43792575
  C       -2.42201134      4.36549852     -0.57113781
  H       -2.14322530      4.81980150      0.38803704
  H       -3.36303809      4.82190323     -0.89217661
  H       -1.66528580      4.64858365     -1.30619399
  C        4.56726627      2.52024452     -2.39887506
  H        4.27549002      3.52765642     -2.71011893
  H        5.55367995      2.32542016     -2.82640396
  H        3.87338041      1.80683348     -2.85428113
  O        2.83799714      0.07002192      1.68271946
  O        3.32968426     -1.13813273      2.32799683
  H        4.10002318     -0.79053693      2.80724796
  O        8.91844117      2.06713736     -0.27569295
  H        9.08825047      2.15821041     -1.22386594
  C       -3.78770626      2.48558187      0.44130101
  H       -3.79223531      1.40848115      0.64242795
  H       -3.67414442      2.97630963      1.42027884
  C       -5.15552493      2.85432696     -0.15591707
  H       -5.22150428      3.93699816     -0.30968377
  H       -5.24834620      2.39436214     -1.15130414
  C       -6.32665924      2.38886623      0.72273763
  H       -6.25759440      2.87431361      1.70845036
  H       -6.21741422      1.31074012      0.90832017
  C       -7.73313638      2.64179960      0.14237572
  H       -7.76546876      2.18682924     -0.85984870
  C       -8.80315925      1.95189012      1.00353280
  H       -8.81340092      2.36637310      2.01983950
  H       -9.80462247      2.08877306      0.57977330
  H       -8.61738385      0.87483630      1.08560150
  C       -8.05007978      4.13855370     -0.00927208
  H       -8.00403138      4.64545231      0.96351284
  H       -9.05872638      4.28601391     -0.41191277
  H       -7.35023477      4.64341159     -0.68260156



