%Mem=256MB 
%NProc=12 

#P HF/6-31G* SCF(Conver=6) NoSymm Test 
   Pop=chelpg IOp(6/33=2) GFInput GFPrint 

MEP - Input generated by R.E.D.-III.x MOLECULE 

0 1 
  C        1.75840764     -1.24871205      0.05804058
  H        1.88317253     -1.21144294     -1.03113394
  C        3.14674778     -1.25898273      0.71731897
  H        3.72600679     -2.10888666      0.34325990
  H        3.00315792     -1.42600568      1.79646612
  C        3.90578924      0.03523222      0.48905934
  C        3.17374969      1.33504652      0.84615366
  C        1.74429607      1.27327714      0.22420710
  H        1.83942745      1.38466849     -0.86450981
  H        1.15942899      2.13068493      0.57423635
  C        0.96851575     -0.02135311      0.51231805
  H        0.75375466     -0.11039011      1.58752034
  H        0.00000000      0.00000000      0.00000000
  C        5.15506899     -0.00000000     -0.00000000
  H        5.60526394     -0.96355343     -0.23151394
  C        6.00461278      1.20934366     -0.26516476
  H        7.03732867      1.02338884      0.05603768
  C        5.46573004      2.47492405      0.42608472
  H        5.70196692      2.33750512      1.49043204
  C        3.92652691      2.57664438      0.24988376
  H        3.74937562      2.54670009     -0.83526504
  C        3.36997674      3.92927509      0.75802092
  H        3.37436767      3.94868970      1.85240306
  H        2.31967335      4.02545696      0.45969320
  C        4.14035701      5.16462485      0.24868437
  H        4.01403710      5.25257306     -0.83935777
  H        3.69193211      6.06160748      0.69180676
  C        5.64429950      5.06892972      0.57079929
  C        6.15479978      3.75081245     -0.08061438
  H        5.89536392      3.83363114     -1.14444079
  C        7.68753645      3.84890551      0.00000000
  H        8.17487560      3.24347870     -0.76933835
  H        8.05212890      3.49062700      0.97124723
  C        7.96849035      5.36934714     -0.17242805
  H        8.60347536      5.74071793      0.63819705
  H        8.50528914      5.58080810     -1.10355101
  C        6.57824958      6.08253525     -0.17785562
  H        6.23074408      6.05007104     -1.21906037
  C        5.86636698      5.08814898      2.10074817
  H        5.46958353      4.19286537      2.58669514
  H        6.92532637      5.15293065      2.36343331
  H        5.36169684      5.94619401      2.55440006
  C        6.67177457      7.59841316      0.16215637
  H        7.44084201      7.97029359     -0.53491366
  C        7.17291624      7.96375974      1.57444490
  H        6.39318844      7.84128588      2.33192699
  H        7.47938370      9.01583204      1.59427727
  H        8.03658136      7.36886671      1.88506641
  C        3.06543517      1.42167490      2.39349241
  H        2.38324974      2.22000877      2.70033866
  H        2.68654204      0.49219580      2.82510511
  H        4.04211891      1.61233410      2.84898654
  O        6.06377056      1.50350478     -1.68830791
  O        6.80182915      0.42637776     -2.33076665
  H        6.08710243     -0.02919107     -2.80570481
  O        1.05409485     -2.47181728      0.28691268
  H        0.88556970     -2.55986268      1.23560418
  C        5.39215915      8.41493026     -0.14399019
  H        4.56379159      8.05559199      0.48147143
  H        5.58313707      9.44504134      0.18426485
  C        4.94757555      8.44276177     -1.61447689
  H        5.77893234      8.80305685     -2.23578870
  H        4.73879570      7.42340411     -1.95919684
  C        3.68692175      9.28739309     -1.88106483
  H        2.86006931      8.87673977     -1.28350147
  H        3.39390291      9.15400495     -2.93306429
  C        3.78368421     10.80241853     -1.60052785
  H        4.05337375     10.94261117     -0.54410925
  C        4.85847604     11.49044871     -2.45699236
  H        4.64769246     11.35821241     -3.52629168
  H        4.88887980     12.56733204     -2.25566711
  H        5.85945901     11.09143844     -2.26353866
  C        2.41511513     11.46839584     -1.81639833
  H        2.09134455     11.36750453     -2.86036753
  H        2.45156256     12.53847869     -1.58224942
  H        1.64458155     11.01258843     -1.18391184



