%Mem=256MB 
%NProc=12 

#P HF/6-31G* SCF(Conver=6) NoSymm Test 
   Pop=chelpg IOp(6/33=2) GFInput GFPrint 

MEP - Input generated by R.E.D.-III.x MOLECULE 

0 1 
  C       -0.95978024      2.00371971      1.69105738
  H       -0.97995971      1.02356633      2.18311253
  C        0.39384781      2.67418821      1.97438461
  H        0.54533308      2.75651447      3.05515530
  H        0.34601725      3.70281754      1.58363581
  C        1.55288324      1.93039826      1.33672814
  C        1.43276629      1.62188927     -0.16109372
  C        0.01884374      1.01512224     -0.41944022
  H        0.00000000      0.00000000      0.00000000
  H       -0.13811273      0.90832938     -1.49818161
  C       -1.14761215      1.81096671      0.18628539
  H       -1.23165866      2.79703648     -0.29409623
  H       -2.09358606      1.29002062      0.00000000
  C        2.61310868      1.58074878      2.08155781
  H        2.62223185      1.83382011      3.14012784
  C        3.81765490      0.84837220      1.56467254
  H        4.73280349      1.27709450      1.99244227
  C        3.90596581      0.86445623      0.02784650
  H        4.21228472      1.88872027     -0.22631259
  C        2.51572960      0.57351041     -0.59926455
  H        2.19462263     -0.38966888     -0.17617506
  C        2.59631229      0.38411844     -2.13403382
  H        2.75565187      1.35024321     -2.62325880
  H        1.63382549      0.01400617     -2.50554521
  C        3.70568591     -0.58254255     -2.59635752
  H        3.47685050     -1.59757531     -2.24338684
  H        3.70114400     -0.62120345     -3.69211849
  C        5.08558586     -0.16409946     -2.05342234
  C        4.95841533     -0.12047889     -0.50290654
  H        4.61191822     -1.12098010     -0.21171427
  C        6.40703177     -0.00000000     -0.00000000
  H        6.51777093     -0.38612071      1.01714950
  H        6.72968297      1.04891066      0.01647912
  C        7.22669472     -0.81733651     -1.03945615
  H        8.05289257     -0.22018526     -1.43862830
  H        7.68079320     -1.70736957     -0.59056409
  C        6.22994729     -1.23106922     -2.16920044
  H        5.76255036     -2.16531973     -1.82918372
  C        5.49974408      1.20424268     -2.64248718
  H        4.85989759      2.01636672     -2.28756186
  H        6.52805308      1.47058972     -2.38522365
  H        5.42535330      1.19494224     -3.73377876
  C        6.94458530     -1.60648982     -3.49929555
  H        7.71279679     -2.32846105     -3.18181203
  C        7.71185739     -0.47999015     -4.22116424
  H        7.04203183      0.19103878     -4.76691012
  H        8.39887808     -0.91623274     -4.95528922
  H        8.31165310      0.12868251     -3.53825206
  C        1.57840783      2.95533876     -0.94466596
  H        1.30599353      2.83013998     -1.99678664
  H        0.93255775      3.73656082     -0.53683205
  H        2.60514727      3.33151806     -0.89949152
  O        3.79144545     -0.54896447      1.96721410
  O        3.96167722     -0.59491761      3.41170343
  H        3.06883918     -0.85354318      3.69439491
  O       -2.04174727      2.71867469      2.29327168
  H       -2.10102633      3.59368472      1.88460567
  C        6.04931013     -2.33837515     -4.52900013
  H        5.25937981     -1.65596404     -4.86803775
  H        6.66388546     -2.53203633     -5.41863812
  C        5.39537564     -3.66189779     -4.08632749
  H        4.68736290     -3.47220800     -3.27094814
  H        4.78353059     -4.03023821     -4.91985155
  C        6.35984967     -4.77430896     -3.63162451
  H        5.76035141     -5.64562017     -3.32886752
  H        6.88738780     -4.44896767     -2.72488148
  C        7.40852315     -5.24563418     -4.66134836
  H        8.01968547     -4.37907030     -4.95271580
  C        8.35130625     -6.27888817     -4.02369795
  H        7.79787693     -7.17545321     -3.71601881
  H        9.13038923     -6.59477432     -4.72689957
  H        8.84670122     -5.87290736     -3.13422204
  C        6.76561590     -5.81698815     -5.93519929
  H        6.12276236     -6.67403457     -5.69539499
  H        7.53149089     -6.16366491     -6.63833147
  H        6.15152596     -5.07584572     -6.45687255



