%Mem=256MB 
%NProc=12 

#P HF/6-31G* SCF(Conver=6) NoSymm Test 
   Pop=chelpg IOp(6/33=2) GFInput GFPrint 

MEP - Input generated by R.E.D.-III.x MOLECULE 

0 1 
  C       -0.93052508      2.00036175      1.71761481
  H       -0.98450086      1.01409452      2.19398816
  C        0.43732113      2.62858761      2.03090640
  H        0.57613820      2.68626490      3.11491838
  H        0.42346712      3.66472795      1.65790816
  C        1.58099384      1.86283809      1.39404648
  C        1.47695557      1.58551627     -0.10984508
  C        0.05082058      1.02226790     -0.39844480
  H        0.00000000      0.00000000      0.00000000
  H       -0.09391500      0.94216424     -1.48111984
  C       -1.10226400      1.83762754      0.20738927
  H       -1.15465816      2.83371408     -0.25681341
  H       -2.05883886      1.34473954      0.00000000
  C        2.61521085      1.45732116      2.14647759
  H        2.60919775      1.65467387      3.21696188
  C        3.78514782      0.67440984      1.62821384
  H        4.70909132      0.98559950      2.12787858
  C        3.92838540      0.77865571      0.09757640
  H        4.23881613      1.81584119     -0.09721703
  C        2.53955583      0.51614388     -0.54736169
  H        2.20216935     -0.43957613     -0.12001454
  C        2.60525636      0.31511014     -2.07938515
  H        2.74105064      1.27709977     -2.58368710
  H        1.64466817     -0.07616115     -2.43389773
  C        3.72382620     -0.63679142     -2.54550279
  H        3.52132800     -1.65367522     -2.18014814
  H        3.70176812     -0.68688744     -3.63881524
  C        5.10050851     -0.18813297     -2.01976956
  C        4.99788914     -0.16824619     -0.46636748
  H        4.69058550     -1.18475374     -0.18231044
  C        6.45303354     -0.00000000     -0.00000000
  H        6.60394096     -0.37118327      1.01525898
  H        6.74200726      1.05909715     -0.00592603
  C        7.26971362     -0.80326385     -1.04967457
  H        8.09155814     -0.19811964     -1.45070384
  H        7.73048035     -1.68996758     -0.60289087
  C        6.28098268     -1.20461647     -2.19363081
  H        5.86040487     -2.19095760     -1.94918731
  C        5.48837180      1.18721565     -2.61091340
  H        4.80681781      1.98328449     -2.30046820
  H        6.49571222      1.49214190     -2.31247585
  H        5.46899538      1.15593850     -3.70580968
  C        6.98564957     -1.32993448     -3.56765447
  H        7.41534049     -0.34592806     -3.80604351
  C        6.03852209     -1.70544071     -4.72286580
  H        5.43756536     -2.59113583     -4.48830625
  H        6.61173037     -1.92465528     -5.63167357
  H        5.34700213     -0.89428797     -4.96433034
  C        1.66945420      2.92846312     -0.86663064
  H        1.41696943      2.82679866     -1.92615977
  H        1.03183762      3.71698627     -0.45965378
  H        2.70286928      3.28085395     -0.79366338
  O        3.50057108     -0.68284442      2.08286279
  O        4.75920789     -1.38835777      2.33989514
  H        4.63024702     -1.61203375      3.27565209
  O       -2.00003615      2.73731652      2.31591584
  H       -2.03441127      3.61615503      1.91265035
  C        8.19150299     -2.30668057     -3.52049916
  H        8.69281452     -2.26161971     -4.49806421
  H        8.92701803     -1.94186137     -2.79267288
  C        7.87482956     -3.77742836     -3.20307769
  H        7.39212364     -3.84676883     -2.22109251
  H        7.15230261     -4.17097617     -3.93101089
  C        9.13092368     -4.66194916     -3.22461742
  H        9.83930874     -4.30793921     -2.45974644
  H        9.63701268     -4.52589260     -4.19129972
  C        8.88431128     -6.16971604     -3.01353752
  H        8.14683756     -6.49350359     -3.76442947
  C       10.17664462     -6.96623906     -3.25409950
  H       10.95158921     -6.68061625     -2.53110056
  H       10.00597986     -8.04373613     -3.14846196
  H       10.57654556     -6.78629966     -4.25863946
  C        8.31004231     -6.48571005     -1.62287232
  H        8.99891019     -6.15549429     -0.83430005
  H        8.15691113     -7.56385672     -1.49856192
  H        7.34693378     -5.99471293     -1.45194937



