%Mem=256MB 
%NProc=12 

#P HF/6-31G* SCF(Conver=6) NoSymm Test 
   Pop=chelpg IOp(6/33=2) GFInput GFPrint 

MEP - Input generated by R.E.D.-III.x MOLECULE 

0 1 
  C        1.75831995     -1.24906380      0.05269225
  H        1.88261204     -1.20759815     -1.03637847
  C        3.14699107     -1.26227857      0.71133113
  H        3.72615769     -2.11038793      0.33306474
  H        3.00399070     -1.43440955      1.78978498
  C        3.90598953      0.03296910      0.48879482
  C        3.17388350      1.33120542      0.85129212
  C        1.74455118      1.27217282      0.22902696
  H        1.83992949      1.38764319     -0.85922438
  H        1.15999430      2.12860354      0.58208342
  C        0.96859782     -0.02343682      0.51208120
  H        0.75401942     -0.11691966      1.58694473
  H        0.00000000      0.00000000      0.00000000
  C        5.15540055      0.00000000      0.00000000
  H        5.60599528     -0.96244062     -0.23539633
  C        6.00461998      1.21065778     -0.26013577
  H        7.03718154      1.02390041      0.06098917
  C        5.46473885      2.47416017      0.43415172
  H        5.70205184      2.33720831      1.49864531
  C        3.92645473      2.57508208      0.25981894
  H        3.74763948      2.55058571     -0.82518253
  C        3.37577064      3.92566371      0.77617507
  H        3.38127492      3.93722337      1.87086713
  H        2.32531713      4.02842541      0.48029511
  C        4.14819720      5.16389162      0.27669385
  H        4.02581621      5.26128671     -0.81143114
  H        3.69307176      6.05412387      0.72194694
  C        5.65475670      5.06606153      0.59523390
  C        6.15319862      3.75198796     -0.06930091
  H        5.88678963      3.84708553     -1.13095322
  C        7.68327520      3.83964911      0.00000000
  H        8.16371578      3.22504639     -0.76631605
  H        8.05244919      3.48956743      0.97254474
  C        7.96846229      5.35438346     -0.19125776
  H        8.64118011      5.72733621      0.59038315
  H        8.46909896      5.54393343     -1.14515538
  C        6.59111250      6.09964454     -0.12433603
  H        6.20620853      6.19298955     -1.15225735
  C        5.89966212      5.09511013      2.12117118
  H        5.43320914      4.25136187      2.63637394
  H        6.96638931      5.07042905      2.36355013
  H        5.48712346      6.00849942      2.56249668
  C        6.72228536      7.54066115      0.43545617
  H        7.16247764      7.46526213      1.43977477
  C        5.37440894      8.27078476      0.56212799
  H        4.85677484      8.31255604     -0.40468674
  H        5.51141915      9.30007829      0.90737039
  H        4.70763716      7.78317517      1.27651443
  C        3.06567202      1.41067877      2.39893438
  H        2.38425943      2.20813440      2.70975995
  H        2.68572329      0.47952770      2.82596758
  H        4.04263841      1.59792756      2.85528320
  O        6.06429305      1.50973223     -1.68219680
  O        6.80425835      0.43574997     -2.32777120
  H        6.09077063     -0.01787128     -2.80640137
  O        1.05390817     -2.47302229      0.27690843
  H        0.88501317     -2.56454404      1.22520154
  C        7.69800862      8.35686921     -0.45110973
  H        8.63981797      7.80486247     -0.55027357
  H        7.27181686      8.41287222     -1.46396527
  C        8.04262640      9.78649284      0.01127180
  H        8.68997857     10.22778154     -0.75658987
  H        7.14052106     10.41214953      0.03284951
  C        8.74312224      9.86428420      1.37629338
  H        9.64424116      9.23142305      1.35945974
  H        8.08626322      9.43472623      2.14411472
  C        9.14165205     11.28487195      1.82894729
  H        8.24150725     11.91652511      1.77129240
  C        9.61065883     11.27236392      3.29274884
  H       10.50601509     10.64839172      3.41038282
  H        9.86225673     12.28122309      3.63936424
  H        8.83660444     10.87209810      3.95758935
  C       10.21721460     11.91412355      0.92836961
  H       11.13272506     11.30824571      0.93681519
  H       10.48155925     12.91843674      1.27857702
  H        9.88662473     12.00544655     -0.11095538



