%Mem=256MB 
%NProc=12 

#P HF/6-31G* SCF(Conver=6) NoSymm Test 
   Pop=chelpg IOp(6/33=2) GFInput GFPrint 

MEP - Input generated by R.E.D.-III.x MOLECULE 

0 1 
  C        7.51667339      2.15040439     -0.05734365
  H        7.41582232      2.06698690      1.03174310
  C        6.76266374      0.98481235     -0.71694162
  H        7.15384494      0.03379713     -0.34232728
  H        6.98173804      1.01261079     -1.79596985
  C        5.26413537      1.06253287     -0.48964695
  C        4.58100941      2.38825287     -0.84853061
  C        5.41789486      3.54879211     -0.22652588
  H        5.27119815      3.53134432      0.86200931
  H        5.02363554      4.50848687     -0.57764825
  C        6.92617465      3.48483370     -0.51273879
  H        7.12014523      3.61495295     -1.58772894
  H        7.44017565      4.30572870      0.00000000
  C        4.60660429     -0.00000000      0.00000000
  H        5.16385653     -0.90559323      0.23254770
  C        3.12918253     -0.04452008      0.26407974
  H        2.71701547     -1.00978391     -0.05634950
  C        2.36870160      1.10068151     -0.42881999
  H        2.35406101      0.82705803     -1.49306324
  C        3.12942221      2.44268529     -0.25372028
  H        3.25052777      2.57613477      0.83132441
  C        2.30526267      3.64949053     -0.76513141
  H        2.28826184      3.65391860     -1.85967626
  H        2.80151565      4.58072955     -0.46853621
  C        0.84888401      3.68644105     -0.25863305
  H        0.84026902      3.84481411      0.82900674
  H        0.34664405      4.55198560     -0.70565625
  C        0.10334611      2.37601430     -0.57742253
  C        0.92390640      1.22703413      0.07706358
  H        0.99675230      1.49228478      1.14023055
  C        0.00000000      0.00000000      0.00000000
  H        0.23844947     -0.73798691      0.77098090
  H        0.09808752     -0.50397639     -0.97003058
  C       -1.42406170      0.60193424      0.17235951
  H       -2.08509787      0.27202973     -0.63553078
  H       -1.89407925      0.27389263      1.10580488
  C       -1.25714262      2.15459776      0.16913679
  H       -1.04448714      2.44331543      1.20961502
  C       -0.03804646      2.19783107     -2.10661306
  H        0.92761222      2.04359701     -2.59532037
  H       -0.66936919      1.34415224     -2.36645956
  H       -0.48560466      3.08754684     -2.55936384
  C       -2.57284138      2.91554953     -0.16994802
  H       -3.29465405      2.48828031      0.54311903
  C       -3.17423851      2.68497219     -1.57052974
  H       -2.65546480      3.26334236     -2.34122163
  H       -4.22504080      2.99181891     -1.58834254
  H       -3.14598348      1.63247758     -1.86703728
  C        4.57015241      2.52518341     -2.39592653
  H        4.27785817      3.53343850     -2.70386210
  H        5.55576558      2.33136185     -2.82573676
  H        3.87526467      1.81319219     -2.85196034
  O        2.84988436      0.06949374      1.68690918
  O        3.34615644     -1.13688669      2.33180990
  H        4.11969227     -0.78807158      2.80502663
  O        8.92585421      2.06635482     -0.28460974
  H        9.09328854      2.15995390     -1.23296115
  C       -2.47164343      4.42523217      0.14784584
  H       -1.95722645      4.54942253      1.10972820
  H       -1.82750917      4.90510378     -0.60001598
  C       -3.80334303      5.20300139      0.18475934
  H       -3.57203982      6.25869643      0.37595242
  H       -4.26608587      5.18427072     -0.81013047
  C       -4.84762151      4.71737018      1.20803869
  H       -5.17228042      3.70193543      0.94332081
  H       -5.74312712      5.34892301      1.11031838
  C       -4.41591277      4.71874960      2.68982002
  H       -3.53006195      4.07513912      2.79116646
  C       -4.03714010      6.12193870      3.18992499
  H       -4.88377973      6.81322036      3.08678814
  H       -3.75637351      6.09717294      4.24900163
  H       -3.19289450      6.54446347      2.63561026
  C       -5.52490221      4.11530948      3.56667677
  H       -6.43908567      4.72039297      3.51216769
  H       -5.22015288      4.06827112      4.61838561
  H       -5.77969983      3.09868159      3.24570066



