%Mem=256MB 
%NProc=12 

#P HF/6-31G* SCF(Conver=6) NoSymm Test 
   Pop=chelpg IOp(6/33=2) GFInput GFPrint 

MEP - Input generated by R.E.D.-III.x MOLECULE 

0 1 
  C        1.01394896     -0.88489166     -1.68622848
  H        1.14500642      0.08507771     -2.18143374
  C        2.24925201     -1.75595171     -1.96461152
  H        2.38823924     -1.86377807     -3.04482274
  H        2.04332528     -2.76391487     -1.57126410
  C        3.50758566     -1.19685367     -1.32645471
  C        3.43346910     -0.86812723      0.16986998
  C        2.12900654     -0.05073051      0.42314452
  H        2.26688856      0.95359502      0.00000000
  H        1.98876550      0.08316035      1.50120683
  C        0.85527252     -0.66041920     -0.18249810
  H        0.62030137     -1.62029038      0.30083205
  H        0.00000000      0.00000000      0.00000000
  C        4.61056861     -1.01717956     -2.06950535
  H        4.58318525     -1.27286056     -3.12714607
  C        5.91160279     -0.47453562     -1.55258706
  H        6.75152315     -1.03990425     -1.97581065
  C        5.99402191     -0.49408829     -0.01533472
  H        6.14610899     -1.55041346      0.24784488
  C        4.66313057      0.00373884      0.60732628
  H        4.49217701      1.00423272      0.18352900
  C        4.77445568      0.17745139      2.14065250
  H        4.78671648     -0.80299813      2.62757530
  H        3.87991527      0.68780691      2.51596594
  C        6.01759006      0.96308988      2.60585855
  H        5.94919304      2.00293307      2.25575163
  H        6.00949862      1.00168843      3.69964393
  C        7.32237371      0.34555054      2.06080424
  C        7.18032786      0.32698028      0.51281056
  H        6.98336293      1.36989808      0.22875841
  C        8.58870232      0.00000000      0.00000000
  H        8.74264262      0.34845487     -1.02501824
  H        8.76511239     -1.08328789      0.00248519
  C        9.51896236      0.71844173      1.01532234
  H       10.29459567      0.03750062      1.38615928
  H       10.04262321      1.55493252      0.54365343
  C        8.61994095      1.21714318      2.19904490
  H        8.31460497      2.25246999      1.97939492
  C        7.55772677     -1.06178886      2.65561168
  H        6.76548899     -1.76632624      2.38939143
  H        8.50242987     -1.49596235      2.31465690
  H        7.59556981     -1.01953349      3.74916413
  C        9.38128229      1.25381466      3.54992984
  H        9.75499238      0.23828191      3.75233677
  C        8.49650504      1.67952790      4.73505505
  H        8.02653348      2.65235679      4.54296627
  H        9.08253613      1.77103767      5.65434273
  H        7.70060626      0.95914550      4.93658902
  C        3.37155929     -2.20581806      0.95728889
  H        3.11862254     -2.03769137      2.00831681
  H        2.61516690     -2.88042562      0.54920916
  H        4.32900782     -2.73439826      0.91596322
  O        6.09916015      0.90816864     -1.96272468
  O        6.28284704      0.91845736     -3.40636235
  H        5.44356032      1.31287888     -3.69607418
  O       -0.16381761     -1.42766664     -2.28857928
  H       -0.35714028     -2.28183795     -1.87726506
  C       10.61748751      2.18123823      3.44169641
  H       11.16422328      1.95060422      2.52043210
  H       10.27012728      3.22060237      3.33567606
  C       11.61452587      2.09520013      4.60932112
  H       11.12971799      2.39831525      5.54418438
  H       11.91401109      1.04641509      4.74083120
  C       12.85841144      2.96764110      4.37331645
  H       12.53271655      4.00506190      4.20887897
  H       13.33821168      2.64987697      3.43631945
  C       13.92790019      2.96679407      5.49041501
  H       14.72989591      3.63315271      5.13961766
  C       13.40488348      3.54976504      6.81385495
  H       12.64036285      2.90695212      7.26533957
  H       14.21703151      3.65165116      7.54276807
  H       12.96282507      4.54212346      6.66582101
  C       14.55641830      1.58031938      5.70794674
  H       13.83219941      0.86821047      6.12016682
  H       15.39431498      1.63819188      6.41211823
  H       14.93799610      1.16320083      4.76851345



