%Mem=256MB 
%NProc=12 

#P HF/6-31G* SCF(Conver=6) NoSymm Test 
   Pop=chelpg IOp(6/33=2) GFInput GFPrint 

MEP - Input generated by R.E.D.-III.x MOLECULE 

0 1 
  C       -0.96422635      2.00135916      1.69038156
  H       -0.98140123      1.02118195      2.18251589
  C        0.38775181      2.67562815      1.97273228
  H        0.53967450      2.75852229      3.05340299
  H        0.33661002      3.70404331      1.58182690
  C        1.54841468      1.93481958      1.33445954
  C        1.42807964      1.62573036     -0.16313965
  C        0.01566859      1.01482329     -0.42027270
  H        0.00000000      0.00000000      0.00000000
  H       -0.14162084      0.90682895     -1.49886314
  C       -1.15238735      1.80797863      0.18575815
  H       -1.23882765      2.79378217     -0.29472496
  H       -2.09725618      1.28483732      0.00000000
  C        2.60991100      1.58786480      2.07875259
  H        2.61913480      1.84141981      3.13721497
  C        3.81519153      0.85681619      1.56171438
  H        4.72993070      1.28630971      1.98956992
  C        3.90349659      0.87262926      0.02491377
  H        4.20987113      1.89671694     -0.23003666
  C        2.51373063      0.58057845     -0.60263936
  H        2.19457311     -0.38415402     -0.18160489
  C        2.59574705      0.39512713     -2.13771071
  H        2.75491232      1.36315522     -2.62336450
  H        1.63374094      0.02589516     -2.51137070
  C        3.70628653     -0.56834192     -2.60391936
  H        3.47955190     -1.58691255     -2.25869879
  H        3.70365708     -0.60060470     -3.69950620
  C        5.08515545     -0.15205206     -2.05617798
  C        4.95495963     -0.11303394     -0.50613003
  H        4.60497588     -1.11369969     -0.21937846
  C        6.40269382     -0.00000000     -0.00000000
  H        6.50940946     -0.38480082      1.01806847
  H        6.73180491      1.04696455      0.01486628
  C        7.21907336     -0.82434720     -1.03664967
  H        8.05694886     -0.23701251     -1.42550880
  H        7.65698789     -1.72245824     -0.58779831
  C        6.22594145     -1.21998945     -2.17504782
  H        5.75065517     -2.15979262     -1.85584688
  C        5.50556127      1.21450965     -2.64435284
  H        4.86043612      2.02799107     -2.30199052
  H        6.53052129      1.48258793     -2.37503791
  H        5.44578184      1.19930234     -3.73668001
  C        6.93115001     -1.59212295     -3.51231770
  H        7.65521831     -2.36638712     -3.20903606
  C        7.75629555     -0.48454189     -4.19835876
  H        7.12204763      0.22485439     -4.73860884
  H        8.44800854     -0.92085466     -4.92582086
  H        8.36176822      0.08414761     -3.48679089
  C        1.56918308      2.95981042     -0.94655106
  H        1.29518222      2.83430636     -1.99821701
  H        0.92249105      3.73952567     -0.53723737
  H        2.59518301      3.33815488     -0.90304822
  O        3.79031997     -0.54055165      1.96443772
  O        3.96118573     -0.58617614      3.40884763
  H        3.06879235     -0.84596361      3.69187786
  O       -2.04775419      2.71345520      2.29321979
  H       -2.10974439      3.58817127      1.88432732
  C        5.97082118     -2.27266311     -4.51443043
  H        5.30813632     -2.95421378     -3.96343502
  H        5.31844805     -1.51511975     -4.97007367
  C        6.66207643     -3.06911450     -5.63278853
  H        7.28809167     -2.39857844     -6.23246658
  H        7.34270336     -3.80631262     -5.18080669
  C        5.66514561     -3.79878934     -6.54544531
  H        5.00877154     -3.06070591     -7.03191217
  H        5.00927927     -4.42084631     -5.91948981
  C        6.29345186     -4.69546857     -7.63180230
  H        6.97639311     -5.39739377     -7.12852674
  C        5.20959383     -5.52424135     -8.33949358
  H        4.49537258     -4.87163865     -8.85801221
  H        5.64664709     -6.19664005     -9.08653345
  H        4.64451068     -6.13586325     -7.62680360
  C        7.11246483     -3.89528569     -8.65772585
  H        6.47948428     -3.15925358     -9.17059643
  H        7.53624515     -4.55696254     -9.42177675
  H        7.94323454     -3.35530507     -8.19273422



