%Mem=256MB 
%NProc=12 

#P HF/6-31G* SCF(Conver=6) NoSymm Test 
   Pop=chelpg IOp(6/33=2) GFInput GFPrint 

MEP - Input generated by R.E.D.-III.x MOLECULE 

0 1 
  C        7.50748710      2.18322264     -0.00477603
  H        7.38674113      2.12154201      1.08331681
  C        6.77436651      1.00076637     -0.65554666
  H        7.16234977      0.05973505     -0.25363313
  H        7.01782792      1.00911790     -1.73030359
  C        5.26949136      1.06845926     -0.47014578
  C        4.58118821      2.38549323     -0.85094376
  C        5.40473879      3.56170592     -0.23975051
  H        5.24267454      3.56324476      0.84648428
  H        5.01077568      4.51233456     -0.61522145
  C        6.91723976      3.50240647     -0.50131824
  H        7.12791681      3.60815158     -1.57604993
  H        7.41720572      4.33897469      0.00000000
  C        4.61003626     -0.00000000      0.00000000
  H        5.16658010     -0.89223825      0.28270766
  C        3.12598398     -0.08268977      0.18582423
  H        2.75793806     -1.01432451     -0.26846440
  C        2.36455064      1.10184841     -0.44341467
  H        2.32089432      0.86909528     -1.51781393
  C        3.13137648      2.43737528     -0.25436548
  H        3.25877717      2.55552734      0.82902206
  C        2.30472568      3.64620622     -0.75059374
  H        2.26990723      3.65673201     -1.84524549
  H        2.80470440      4.57640883     -0.45745492
  C        0.85805165      3.68219704     -0.21680252
  H        0.87185546      3.82348097      0.87365714
  H        0.35653124      4.55948491     -0.63692735
  C        0.09697011      2.37885049     -0.53562974
  C        0.92874710      1.21947371      0.08576950
  H        1.01528353      1.47094229      1.15368748
  C        0.00000000      0.00000000      0.00000000
  H        0.25937592     -0.76863000      0.73279078
  H        0.06277028     -0.46739046     -0.99094981
  C       -1.41176164      0.59986044      0.24385774
  H       -2.11753496      0.26576662     -0.52593108
  H       -1.82176835      0.26639151      1.20182399
  C       -1.26673888      2.16041630      0.20903185
  H       -1.10871771      2.51076365      1.24175307
  C       -0.09980297      2.21950545     -2.06116128
  H        0.84818026      2.14514273     -2.59985212
  H       -0.68207874      1.32673789     -2.30814277
  H       -0.63639127      3.08095935     -2.47235067
  C       -2.54947076      2.86346689     -0.30835117
  H       -2.75410868      2.47469049     -1.31576315
  C       -2.40987028      4.39192715     -0.40888321
  H       -2.12922431      4.82621567      0.55911539
  H       -3.35106757      4.85647324     -0.71801045
  H       -1.65459128      4.68945879     -1.13933013
  C        4.57336458      2.50430106     -2.39910444
  H        4.26038770      3.50235635     -2.72064475
  H        5.56562836      2.32680559     -2.82161042
  H        3.89684596      1.77167288     -2.85028888
  O        2.79521920     -0.38532340      1.56311489
  O        3.33497850      0.67087660      2.43039930
  H        2.58396246      0.76503141      3.03799934
  O        8.92162205      2.10443161     -0.20591101
  H        9.10322857      2.17048494     -1.15396579
  C       -3.75111790      2.49041620      0.59775712
  H       -3.80574845      1.39957993      0.69149192
  H       -3.54610121      2.87218730      1.60925283
  C       -5.14256222      2.99030813      0.15985666
  H       -5.85515358      2.68833888      0.93778200
  H       -5.16438761      4.08624340      0.14656810
  C       -5.60766176      2.43905617     -1.19812708
  H       -5.50136044      1.34417884     -1.18695173
  H       -4.93438388      2.79991603     -1.98717452
  C       -7.05750109      2.78087355     -1.61711807
  H       -7.20008716      2.32291316     -2.60718493
  C       -8.11003194      2.16336437     -0.68135515
  H       -8.08117977      2.61474730      0.31698927
  H       -9.12018455      2.31600318     -1.07823973
  H       -7.95662574      1.08397874     -0.56539186
  C       -7.28492247      4.29275866     -1.78259981
  H       -7.22106311      4.81843830     -0.82288797
  H       -8.27824014      4.49422145     -2.19962690
  H       -6.54362914      4.73661440     -2.45763317



