%Mem=256MB 
%NProc=12 

#P HF/6-31G* SCF(Conver=6) NoSymm Test 
   Pop=chelpg IOp(6/33=2) GFInput GFPrint 

MEP - Input generated by R.E.D.-III.x MOLECULE 

0 1 
  C       -0.96352457      2.00379542      1.68741466
  H       -0.97911980      1.02450658      2.18136862
  C        0.38821581      2.67985220      1.96682023
  H        0.54126084      2.76508710      3.04715006
  H        0.33569031      3.70739328      1.57381223
  C        1.54866352      1.93883215      1.32852696
  C        1.42653554      1.62654226     -0.16817956
  C        0.01446974      1.01393295     -0.42246761
  H        0.00000000      0.00000000      0.00000000
  H       -0.14385596      0.90338761     -1.50068780
  C       -1.15358518      1.80728880      0.18336512
  H       -1.24168854      2.79200837     -0.29904212
  H       -2.09819461      1.28284563      0.00000000
  C        2.61168307      1.59422771      2.07173545
  H        2.62258328      1.84994703      3.12965375
  C        3.81646667      0.86256151      1.55431761
  H        4.73160954      1.29351017      1.97981860
  C        3.90215295      0.87345613      0.01723687
  H        4.21054523      1.89568003     -0.24342204
  C        2.51205558      0.58108784     -0.60655765
  H        2.19338671     -0.38316530     -0.18413107
  C        2.59646565      0.39465971     -2.14017131
  H        2.75376212      1.36301378     -2.62605505
  H        1.63611013      0.02301935     -2.51584019
  C        3.70935383     -0.56577991     -2.60706376
  H        3.48752774     -1.58471484     -2.25903546
  H        3.69643288     -0.60058232     -3.70092912
  C        5.09086603     -0.14956224     -2.06066541
  C        4.95331852     -0.11371784     -0.51286868
  H        4.60390311     -1.11649473     -0.23080186
  C        6.39477582     -0.00000000     -0.00000000
  H        6.49572718     -0.36978287      1.02415074
  H        6.72977688      1.04513985     -0.00004788
  C        7.20828936     -0.84617421     -1.01729770
  H        8.07694090     -0.28772719     -1.38646708
  H        7.60088236     -1.75207112     -0.54648115
  C        6.24542984     -1.20316684     -2.20193682
  H        5.79064210     -2.18280182     -1.98528493
  C        5.53233574      1.20881022     -2.65239714
  H        4.85077865      2.02190938     -2.38905243
  H        6.52892781      1.49967665     -2.30674596
  H        5.56862149      1.16219540     -3.74576748
  C        6.99047352     -1.34600383     -3.55462650
  H        7.50935156     -0.39571495     -3.75338511
  C        6.04746577     -1.63148137     -4.73746364
  H        5.41750960     -2.50588258     -4.53170362
  H        6.60988047     -1.83831556     -5.65301987
  H        5.38721154     -0.78859233     -4.95428289
  C        1.56563282      2.95906860     -0.95461499
  H        1.29043924      2.83126148     -2.00568919
  H        0.91873260      3.73908583     -0.54615126
  H        2.59136278      3.33833290     -0.91290533
  O        3.79256399     -0.53392662      1.95996035
  O        3.96437271     -0.57685497      3.40431778
  H        3.07211587     -0.83601200      3.68836230
  O       -2.04689803      2.71597550      2.29035514
  H       -2.11016407      3.58993917      1.88005697
  C        8.07636759     -2.44902570     -3.46140759
  H        8.59627820     -2.36445145     -2.50244197
  H        7.57943411     -3.43169789     -3.45188905
  C        9.12521031     -2.41987071     -4.58539909
  H        8.62755349     -2.44940305     -5.56223806
  H        9.65872280     -1.46010536     -4.55237437
  C       10.13337333     -3.58370174     -4.54538475
  H       10.77546753     -3.52111585     -5.43662882
  H        9.57789775     -4.52811883     -4.63926389
  C       11.04578942     -3.67761985     -3.30371815
  H       10.40852124     -3.76222415     -2.41195194
  C       11.90644723     -4.94928410     -3.37475746
  H       12.57268687     -4.92241164     -4.24674092
  H       12.53268060     -5.05686705     -2.48174382
  H       11.28488748     -5.84819197     -3.45891437
  C       11.93396240     -2.43504223     -3.13298907
  H       12.57690334     -2.29251293     -4.01145406
  H       12.58584880     -2.53727839     -2.25794918
  H       11.34557308     -1.52146297     -2.99951587



