%Mem=256MB 
%NProc=12 

#P HF/6-31G* SCF(Conver=6) NoSymm Test 
   Pop=chelpg IOp(6/33=2) GFInput GFPrint 

MEP - Input generated by R.E.D.-III.x MOLECULE 

0 1 
  C        7.54054709      2.13511986     -0.14164414
  H        7.49545824      2.01058638      0.94695102
  C        6.74990541      0.99522430     -0.80445976
  H        7.15495015      0.03083020     -0.48265131
  H        6.91445218      1.06092235     -1.89140827
  C        5.26658949      1.07139879     -0.49828339
  C        4.56888826      2.40740856     -0.77704657
  C        5.43960073      3.54377258     -0.15644782
  H        5.34423493      3.48922693      0.93637538
  H        5.03322307      4.51558503     -0.45647568
  C        6.93226575      3.48625627     -0.51728455
  H        7.07442827      3.65616681     -1.59494956
  H        7.47364753      4.28645177      0.00000000
  C        4.63103703     -0.00000000     -0.00000000
  H        5.19414339     -0.90760300      0.21000733
  C        3.17552063     -0.03030205      0.36153180
  H        2.73983323     -1.00684952      0.12341200
  C        2.38015166      1.10359932     -0.31373722
  H        2.35886565      0.84823329     -1.38351484
  C        3.14896364      2.43770402     -0.10838944
  H        3.32488129      2.50269075      0.97545269
  C        2.31985752      3.68376674     -0.49647643
  H        2.27362968      3.78571669     -1.58536792
  H        2.82796924      4.58412446     -0.13219840
  C        0.87902723      3.67979214      0.04946702
  H        0.89846539      3.73362119      1.14730967
  H        0.37614488      4.58717636     -0.29869712
  C        0.12114800      2.40458489     -0.36798400
  C        0.93488575      1.20286394      0.19658687
  H        1.00058905      1.37856004      1.27980592
  C        0.00000000      0.00000000      0.00000000
  H        0.23877052     -0.82272028      0.67634613
  H        0.07711190     -0.38684388     -1.02443248
  C       -1.41099496      0.59020149      0.26741844
  H       -2.11306443      0.30710062     -0.52631794
  H       -1.82669082      0.20021138      1.20116794
  C       -1.25855611      2.14912250      0.33232285
  H       -1.12095954      2.43303847      1.38762000
  C       -0.04254575      2.34115640     -1.90480934
  H        0.91558013      2.25912827     -2.42439149
  H       -0.65099264      1.48690362     -2.21584212
  H       -0.53594332      3.24421008     -2.27964545
  C       -2.52598470      2.89069589     -0.16819041
  H       -2.72268054      2.56034391     -1.19978812
  C       -2.37323324      4.42215160     -0.18157540
  H       -2.08377907      4.79563287      0.80880371
  H       -3.31198687      4.91130903     -0.45818249
  H       -1.61877906      4.75618439     -0.89730708
  C        4.48195845      2.59930560     -2.31613819
  H        4.16777358      3.61537808     -2.57233861
  H        5.44706647      2.43081457     -2.80000342
  H        3.77088254      1.89844063     -2.76409792
  O        3.19501711      0.07517013      1.81692048
  O        2.05033546     -0.64887903      2.37672181
  H        2.52122931     -1.28263433      2.94146096
  O        8.93568902      2.05712817     -0.44566636
  H        9.05393013      2.19547464     -1.39594794
  C       -3.75378734      2.48134299      0.68351573
  H       -3.76981634      1.39139720      0.79609426
  H       -3.62978046      2.88890704      1.69874562
  C       -5.12057045      2.91279051      0.12620137
  H       -5.17887878      4.00570466      0.07100948
  H       -5.21325054      2.54465536     -0.90472479
  C       -6.28618202      2.38184937      0.97678582
  H       -6.15322899      2.73175011      2.01084378
  H       -6.21987661      1.28500618      1.01855557
  C       -7.71188686      2.76436432      0.51540899
  H       -8.39773795      2.29227425      1.23450465
  C       -7.96929990      4.27929171      0.57593775
  H       -7.36630907      4.82226486     -0.16101282
  H       -9.02121627      4.50455952      0.36605948
  H       -7.73216376      4.68505197      1.56650119
  C       -8.05647069      2.20082072     -0.87322350
  H       -7.45545429      2.67030175     -1.66052852
  H       -9.11012849      2.37983174     -1.11627117
  H       -7.88216432      1.11932413     -0.91954815



