%Mem=256MB 
%NProc=12 

#P HF/6-31G* SCF(Conver=6) NoSymm Test 
   Pop=chelpg IOp(6/33=2) GFInput GFPrint 

MEP - Input generated by R.E.D.-III.x MOLECULE 

0 1 
  C        1.01282503     -0.87711021     -1.69099986
  H        1.14194387      0.09495262     -2.18260541
  C        2.24901807     -1.74539872     -1.97413794
  H        2.38657079     -1.84931226     -3.05492056
  H        2.04497577     -2.75493801     -1.58395132
  C        3.50748226     -1.18687940     -1.33568649
  C        3.43481870     -0.86427399      0.16216444
  C        2.12966648     -0.04932080      0.41983430
  H        2.26566303      0.95666082      0.00000000
  H        1.99049287      0.08049236      1.49849480
  C        0.85590675     -0.65855140     -0.18622958
  H        0.62299603     -1.62051648      0.29388514
  H        0.00000000      0.00000000      0.00000000
  C        4.60888527     -1.00201863     -2.07988132
  H        4.57998650     -1.25310235     -3.13857919
  C        5.91000950     -0.45996920     -1.56242702
  H        6.75017108     -1.02141269     -1.99041843
  C        5.99490791     -0.48954092     -0.02560691
  H        6.14487013     -1.54803646      0.22883562
  C        4.66430987      0.00677673      0.60199993
  H        4.49293673      1.00828560      0.18077578
  C        4.77254644      0.17802571      2.13716997
  H        4.78426010     -0.80277865      2.62308170
  H        3.87673306      0.68764705      2.51027538
  C        6.01493325      0.96396547      2.60370110
  H        5.94330281      2.00502288      2.25842896
  H        6.01713118      0.99598516      3.69930305
  C        7.31587778      0.34602814      2.05597138
  C        7.18182303      0.32767372      0.50597202
  H        6.98544661      1.36958608      0.21980027
  C        8.59666313     -0.00000000      0.00000000
  H        8.76005044      0.36615434     -1.01740075
  H        8.76542959     -1.08436396     -0.01652962
  C        9.52696514      0.69136823      1.03803300
  H       10.26651039     -0.01573152      1.42689569
  H       10.09544997      1.51371525      0.59035159
  C        8.60352520      1.23110026      2.17578078
  H        8.27446490      2.23131941      1.85581035
  C        7.52683676     -1.06817219      2.64375980
  H        6.76620205     -1.77534872      2.30247590
  H        8.49950807     -1.48703320      2.37292976
  H        7.47168534     -1.04393937      3.73615669
  C        9.35338550      1.49421453      3.51477943
  H       10.18261324      2.15584588      3.21406050
  C       10.00818212      0.27637158      4.19790929
  H        9.27666267     -0.33642582      4.73327529
  H       10.75405695      0.60411373      4.92875132
  H       10.52711437     -0.37050838      3.48476710
  C        3.37518496     -2.20484926      0.94492896
  H        3.12183463     -2.04046140      1.99642847
  H        2.62015439     -2.87963508      0.53457296
  H        4.33364689     -2.73143632      0.90226362
  O        6.09471742      0.92552247     -1.96452276
  O        6.27348487      0.94533699     -3.40859471
  H        5.43069357      1.33589849     -3.69338774
  O       -0.16489101     -1.41929192     -2.29390245
  H       -0.35569680     -2.27589426     -1.88647983
  C        8.49916641      2.30505017      4.51761933
  H        7.92557208      3.05554382      3.95959101
  H        7.75892639      1.64318683      4.98886491
  C        9.30586642      3.00918010      5.62098067
  H        9.89136802      2.26724941      6.17759780
  H       10.03977786      3.68216934      5.15678003
  C        8.45071146      3.78503178      6.64029719
  H        9.11118541      4.16293062      7.43487103
  H        7.76490099      3.07790937      7.12933322
  C        7.62293369      4.97138312      6.10131008
  H        6.94389087      4.59423042      5.32334903
  C        6.75279351      5.56205572      7.22243372
  H        7.37662183      5.96321957      8.03161601
  H        6.12523470      6.38007336      6.85059021
  H        6.09200547      4.80325841      7.65734713
  C        8.50271309      6.06228746      5.47042471
  H        9.21885407      6.45695070      6.20302124
  H        7.89254529      6.90158563      5.11772404
  H        9.07409097      5.68876894      4.61449316



