%Mem=256MB 
%NProc=12 

#P HF/6-31G* SCF(Conver=6) NoSymm Test 
   Pop=chelpg IOp(6/33=2) GFInput GFPrint 

MEP - Input generated by R.E.D.-III.x MOLECULE 

0 1 
  C        7.50843063      2.15044430     -0.05202779
  H        7.40397367      2.06948121      1.03691139
  C        6.75682698      0.98322547     -0.71157835
  H        7.14678506      0.03311386     -0.33340578
  H        6.97976831      1.00868500     -1.78988489
  C        5.25753772      1.06133682     -0.48969978
  C        4.57560962      2.38612280     -0.85357068
  C        5.41010061      3.54829282     -0.23147621
  H        5.25968817      3.53340424      0.85657859
  H        5.01680379      4.50708534     -0.58621785
  C        6.91933751      3.48379992     -0.51246771
  H        7.11682194      3.61132482     -1.58713191
  H        7.43165009      4.30590392      0.00000000
  C        4.59808068     -0.00000000      0.00000000
  H        5.15429690     -0.90528750      0.23619369
  C        3.11994461     -0.04339282      0.26052718
  H        2.70830393     -1.00926079     -0.05864320
  C        2.36117350      1.10094069     -0.43571289
  H        2.34494683      0.82564780     -1.49966632
  C        3.12249876      2.44170222     -0.26308039
  H        3.24053374      2.57898220      0.82182087
  C        2.29763537      3.64373706     -0.78148329
  H        2.28566365      3.64421684     -1.87619230
  H        2.78927857      4.57792157     -0.48632222
  C        0.83843167      3.68005760     -0.28321427
  H        0.82365967      3.83746265      0.80468152
  H        0.34503537      4.54876876     -0.73005973
  C        0.09240272      2.36714540     -0.60001620
  C        0.91511920      1.22948545      0.06726473
  H        0.98182513      1.50617346      1.12848641
  C        0.00000000      0.00000000      0.00000000
  H        0.24962731     -0.73871554      0.76666843
  H        0.08789557     -0.50176436     -0.97217698
  C       -1.42139391      0.59583308      0.19273484
  H       -2.10600756      0.23468212     -0.58423861
  H       -1.85052895      0.28628360      1.15008664
  C       -1.28693233      2.15597773      0.11807600
  H       -1.15562414      2.53404141      1.14432786
  C       -0.06496879      2.17483257     -2.12583207
  H        0.89670641      2.10297567     -2.64053702
  H       -0.62731891      1.26751470     -2.36633316
  H       -0.60414114      3.01830591     -2.56953262
  C       -2.56066844      2.83573512     -0.44868761
  H       -2.74772763      2.41722052     -1.44964549
  C       -2.42534181      4.36214220     -0.59081780
  H       -2.16120015      4.82333540      0.36931721
  H       -3.36336296      4.81294913     -0.92815857
  H       -1.65924640      4.64311090     -1.31677441
  C        4.56945804      2.51981753     -2.40129303
  H        4.27760896      3.52725036     -2.71232465
  H        5.55641770      2.32568814     -2.82786277
  H        3.87640573      1.80636017     -2.85778175
  O        2.83742823      0.07406031      1.68239630
  O        3.32980765     -1.13196708      2.33098049
  H        4.10174391     -0.78325023      2.80685163
  O        8.91836022      2.06601992     -0.27438722
  H        9.08891939      2.15690344     -1.22244498
  C       -3.78915460      2.48467276      0.42782507
  H       -3.80902223      1.40327377      0.60672518
  H       -3.65621770      2.95336780      1.41368328
  C       -5.15094545      2.88338381     -0.16621166
  H       -5.23926912      3.97382197     -0.23189790
  H       -5.20186972      2.51584745     -1.20106774
  C       -6.36144512      2.31635369      0.59854218
  H       -6.29578619      1.21868594      0.59235854
  H       -7.27738960      2.56831859      0.04353862
  C       -6.53999217      2.78467132      2.05863009
  H       -5.63162064      2.51978714      2.61843536
  C       -6.73455016      4.30538620      2.16750327
  H       -7.61971848      4.62600885      1.60265594
  H       -6.87982265      4.60739893      3.21097561
  H       -5.87384090      4.86106617      1.78142895
  C       -7.71645123      2.04286099      2.71317401
  H       -8.65835000      2.27161232      2.19795061
  H       -7.83435483      2.33148390      3.76390604
  H       -7.57341287      0.95672996      2.67767257



