%Mem=256MB 
%NProc=12 

#P HF/6-31G* SCF(Conver=6) NoSymm Test 
   Pop=chelpg IOp(6/33=2) GFInput GFPrint 

MEP - Input generated by R.E.D.-III.x MOLECULE 

0 1 
  C        7.51782813      2.14949446     -0.06041765
  H        7.41933208      2.06476256      1.02878766
  C        6.76221586      0.98486568     -0.71995968
  H        7.15376213      0.03332421     -0.34708049
  H        6.97945781      1.01383055     -1.79931955
  C        5.26417398      1.06280351     -0.48991281
  C        4.58083921      2.38909400     -0.84613790
  C        5.41894418      3.54851986     -0.22372636
  H        5.27419087      3.52927928      0.86504552
  H        5.02435169      4.50891240     -0.57258116
  C        6.92667556      3.48464054     -0.51283613
  H        7.11856032      3.61616753     -1.58802396
  H        7.44182821      4.30474668      0.00000000
  C        4.60726765     -0.00000000      0.00000000
  H        5.16478925     -0.90592550      0.23056930
  C        3.13039373     -0.04446717      0.26706322
  H        2.71760135     -1.00956587     -0.05305472
  C        2.36885256      1.10112751     -0.42413704
  H        2.35338228      0.82770899     -1.48834308
  C        3.13013293      2.44302443     -0.24921281
  H        3.25297601      2.57538588      0.83577761
  C        2.30557497      3.65103586     -0.75743014
  H        2.28419612      3.65643602     -1.85177627
  H        2.80361496      4.58151079     -0.46152312
  C        0.85171750      3.68689872     -0.24388352
  H        0.85184276      3.83893076      0.84427984
  H        0.34715269      4.55542781     -0.68349624
  C        0.10393337      2.37860443     -0.56576368
  C        0.92443209      1.22646776      0.08324984
  H        0.99834505      1.48667505      1.14752430
  C        0.00000000      0.00000000      0.00000000
  H        0.23627429     -0.74038622      0.76938671
  H        0.10097318     -0.50098013     -0.97129751
  C       -1.42497356      0.60089753      0.16980402
  H       -2.08139999      0.27963544     -0.64528240
  H       -1.90083749      0.26404072      1.09715443
  C       -1.25649080      2.15410542      0.18256418
  H       -1.03812484      2.42326128      1.22511179
  C       -0.03516445      2.20502504     -2.09601461
  H        0.92999352      2.03831142     -2.58151098
  H       -0.67677697      1.36037985     -2.35951335
  H       -0.46838922      3.10124575     -2.54954559
  C       -2.57462050      2.90920143     -0.15329500
  H       -3.31115031      2.45500665      0.52692589
  C       -3.14914549      2.71357307     -1.57116640
  H       -2.61339066      3.30581024     -2.31888078
  H       -4.19530088      3.03970494     -1.59079801
  H       -3.12934743      1.66892597     -1.89506594
  C        4.56774879      2.52810812     -2.39333025
  H        4.27309051      3.53618958     -2.69959595
  H        5.55312186      2.33686188     -2.82490891
  H        3.87368991      1.81529286     -2.84929223
  O        2.85380314      0.06896804      1.69045119
  O        3.35200219     -1.13733847      2.33406361
  H        4.12627703     -0.78817879      2.80582030
  O        8.92649350      2.06542275     -0.29084381
  H        9.09180092      2.15958033     -1.23951425
  C       -2.54996452      4.42394544      0.16761925
  H       -1.82805173      4.91786292     -0.49543113
  H       -3.53209884      4.83393775     -0.10954348
  C       -2.25776818      4.84312967      1.62166162
  H       -1.25694463      4.50792437      1.91628474
  H       -2.22452791      5.93985089      1.64473417
  C       -3.29727265      4.34388610      2.63911721
  H       -3.27375394      3.24660733      2.67478308
  H       -4.30045374      4.61372165      2.27700468
  C       -3.14677325      4.86973585      4.08666338
  H       -3.95206043      4.39283804      4.66483518
  C       -1.81662410      4.44938658      4.73364430
  H       -0.96124820      4.93534221      4.25022776
  H       -1.79376091      4.72715702      5.79361721
  H       -1.66575787      3.36538876      4.66960378
  C       -3.35719392      6.38933427      4.19359164
  H       -2.55649909      6.94682968      3.69409939
  H       -3.36934829      6.70710529      5.24247009
  H       -4.30888024      6.69309941      3.74179600



