%Mem=256MB 
%NProc=12 

#P HF/6-31G* SCF(Conver=6) NoSymm Test 
   Pop=chelpg IOp(6/33=2) GFInput GFPrint 

MEP - Input generated by R.E.D.-III.x MOLECULE 

0 1 
  C        7.50931699      2.14953563     -0.05057645
  H        7.40365996      2.06964399      1.03830891
  C        6.75813190      0.98186135     -0.70983924
  H        7.14714526      0.03205091     -0.32993136
  H        6.98281586      1.00580815     -1.78779876
  C        5.25854443      1.06065582     -0.49025997
  C        4.57754291      2.38522431     -0.85690492
  C        5.41132799      3.54757050     -0.23432729
  H        5.25926156      3.53338437      0.85351936
  H        5.01880939      4.50626525     -0.59023584
  C        6.92107448      3.48265806     -0.51283069
  H        7.12045551      3.60954435     -1.58721493
  H        7.43261995      4.30502191      0.00000000
  C        4.59847647     -0.00000000     -0.00000000
  H        5.15437293     -0.90495792      0.23820654
  C        3.12014733     -0.04281507      0.25854374
  H        2.70846772     -1.00892928     -0.05984024
  C        2.36239373      1.10036208     -0.44038789
  H        2.34742291      0.82316606     -1.50393689
  C        3.12305972      2.44216057     -0.26942985
  H        3.23903425      2.58179101      0.81540735
  C        2.29938132      3.64324636     -0.79234247
  H        2.28983939      3.64076809     -1.88700074
  H        2.79104588      4.57791752     -0.49875285
  C        0.83901612      3.68127466     -0.29688174
  H        0.82219289      3.84426927      0.79017228
  H        0.34426504      4.54646882     -0.74984636
  C        0.09526846      2.36675696     -0.60975564
  C        0.91624694      1.23047189      0.06128565
  H        0.98343003      1.51170710      1.12119902
  C        0.00000000      0.00000000      0.00000000
  H        0.24003630     -0.72613814      0.78157973
  H        0.10128874     -0.51762610     -0.96255441
  C       -1.42554098      0.59770615      0.16141117
  H       -2.08536307      0.25080571     -0.64265128
  H       -1.89018605      0.27814453      1.09937081
  C       -1.28164347      2.15485102      0.11068874
  H       -1.13574543      2.51562666      1.13938488
  C       -0.06187660      2.17469774     -2.13512523
  H        0.89990867      2.10362648     -2.64965700
  H       -0.62394783      1.26769119     -2.37729799
  H       -0.60052609      3.01968943     -2.57731763
  C       -2.54929966      2.84899452     -0.44604880
  H       -2.69909927      2.48339424     -1.47253727
  C       -2.43568882      4.38349036     -0.52088326
  H       -2.11850916      4.81752298      0.43394989
  H       -3.40438064      4.82662676     -0.78091536
  H       -1.71877950      4.70428904     -1.28105467
  C        4.57472925      2.51662016     -2.40482908
  H        4.28576800      3.52419438     -2.71805597
  H        5.56205415      2.31951234     -2.82918070
  H        3.88100928      1.80393137     -2.86157471
  O        2.83599057      0.07634525      1.67997523
  O        3.32460072     -1.13064484      2.32971276
  H        4.09572201     -0.78331080      2.80789372
  O        8.91946911      2.06450307     -0.27130065
  H        9.09106817      2.15423723     -1.21927928
  C       -3.83041131      2.43973712      0.32927661
  H       -4.68808559      2.89893352     -0.18311267
  H       -3.97815032      1.35612072      0.24140993
  C       -3.88934205      2.82480590      1.81711354
  H       -3.06184166      2.34647668      2.35507490
  H       -3.74451174      3.90660479      1.92419612
  C       -5.22498908      2.41776683      2.46121931
  H       -5.36729958      1.33627645      2.32134282
  H       -6.04272136      2.90346774      1.90905060
  C       -5.39664470      2.73856719      3.96432424
  H       -6.40232777      2.38381524      4.23473790
  C       -4.39707038      1.97755184      4.85117236
  H       -3.36839311      2.31846739      4.68673771
  H       -4.62461591      2.12808469      5.91270276
  H       -4.42767902      0.89970105      4.65287385
  C       -5.35704344      4.24765060      4.25710494
  H       -4.36194501      4.66901892      4.07355442
  H       -5.60792704      4.44813803      5.30502533
  H       -6.07259091      4.79468809      3.63185185



