%Mem=256MB 
%NProc=12 

#P HF/6-31G* SCF(Conver=6) NoSymm Test 
   Pop=chelpg IOp(6/33=2) GFInput GFPrint 

MEP - Input generated by R.E.D.-III.x MOLECULE 

0 1 
  O        0.00000000      0.00000000      0.00000000
  H       -0.48203020     -0.00004145      0.83902528
  O       -3.24708549      6.38607028      0.00000000
  H       -3.51657304      6.45520426      0.92669305
  C        4.14065657      1.64830312      1.00164005
  C        2.89215981      1.19069382      0.18902277
  H        3.06546847      1.56242647     -0.83538695
  C        1.55726156      1.82192181      0.62322136
  H        1.31074111      1.50312262      1.64643692
  C        1.67411340      3.37250279      0.57957937
  H        1.79465570      3.63039606     -0.48559739
  C        5.24002258      0.81536739      0.25490696
  H        5.29292937      1.27380749     -0.74244665
  C        4.24031389      3.17776318      0.85546858
  H        4.44001840      3.42415611     -0.19680018
  H        5.07817072      3.58053227      1.43677806
  C        0.36621083      4.10435031      1.04325646
  C        3.02823964     -0.34264881      0.12558195
  H        2.49041166     -0.77188931     -0.72283692
  H        2.59988774     -0.80455175      1.02141760
  C        2.94378894      3.87865656      1.30362362
  H        2.83066314      3.75101955      2.38546759
  H        3.05547383      4.95567984      1.13667574
  C        4.56336923     -0.57663834      0.05012896
  H        4.88470892     -1.29048386      0.81567975
  H        4.86475235     -1.00558794     -0.91208714
  C        0.39983929      1.35596502     -0.28138090
  H        0.75826723      1.30317944     -1.31926988
  C        6.72125435      0.70697319      0.71850253
  H        7.16328496     -0.00000000      0.00000000
  C        4.02348643      1.26322883      2.49500805
  H        3.07454628      1.58906693      2.92902823
  H        4.09319477      0.18382103      2.65011786
  H        4.81996946      1.73257547      3.07963504
  C       -0.85642382      3.45282442      0.38752303
  C        0.43359441      5.59207241      0.57519281
  H        0.74845743      5.60677867     -0.47739017
  H        1.21164514      6.11709865      1.13926106
  C       -0.80103050      2.25758783     -0.21812430
  H       -1.69366120      1.85630349     -0.69796617
  C        0.19459835      4.05323421      2.58512457
  H        0.95249139      4.65928203      3.09094463
  H       -0.78189897      4.43529149      2.89385300
  H        0.27196597      3.02770479      2.95904264
  C       -2.16149351      4.22508476      0.43404509
  H       -2.92836878      3.70877436     -0.15163817
  H       -2.53153434      4.26852796      1.47125951
  C       -0.88561899      6.37084472      0.69435109
  H       -1.17696282      6.47536453      1.75009511
  H       -0.75697532      7.38639588      0.30300618
  C        7.53340102      2.02057858      0.60363140
  H        7.12653389      2.75583717      1.30969075
  H        8.55302338      1.80747410      0.95643688
  C       -2.01114629      5.66963289     -0.06551603
  H       -1.76734073      5.65284964     -1.13477621
  C        6.97238828      0.09027439      2.10956678
  H        6.76837577      0.79892874      2.91771413
  H        8.02482948     -0.20310531      2.19609191
  H        6.37020070     -0.80495281      2.28970211
  C        7.64382012      2.67519634     -0.78737364
  H        6.64974897      2.96250976     -1.14814695
  H        8.19937630      3.61348946     -0.66357222
  C        8.34923245      1.80119491     -1.83787841
  H        7.75441643      0.89567386     -2.01692194
  H        9.30723569      1.45657645     -1.42113845
  C        8.62732901      2.46568457     -3.20742218
  H        9.11139525      1.69336911     -3.82336359
  C        9.61100669      3.64373320     -3.10995167
  H        9.17935671      4.48946928     -2.56243056
  H        9.88270217      4.00676820     -4.10776962
  H       10.53531178      3.35040028     -2.59843179
  C        7.33854894      2.88150544     -3.93599985
  H        6.82532434      3.69770057     -3.41446410
  H        7.55975926      3.23080543     -4.95101550
  H        6.63732933      2.04259783     -4.01745655



