%Mem=256MB 
%NProc=12 

#P HF/6-31G* SCF(Conver=6) NoSymm Test 
   Pop=chelpg IOp(6/33=2) GFInput GFPrint 

MEP - Input generated by R.E.D.-III.x MOLECULE 

0 1 
  O        0.00000000      0.00000000      0.00000000
  H        0.96763381      0.00000000      0.00000000
  O        1.64515271     -2.73969760      6.41205101
  H        2.58313240     -2.51013762      6.47253682
  C       -1.19397853      4.10604959      1.59552979
  C       -1.28759599      2.61133138      1.17097110
  H       -2.25962884      2.26487332      1.56344084
  C       -0.23842084      1.67984318      1.80430700
  H        0.76733422      1.97950846      1.47475152
  C       -0.32389667      1.77633225      3.35312283
  H       -1.30597044      1.35427186      3.62311365
  C       -2.38052794      4.70456839      0.76122805
  H       -3.30231078      4.38611020      1.27404700
  C       -1.35606980      4.14201654      3.12827238
  H       -2.37063621      3.80239446      3.38242198
  H       -1.26092273      5.15798532      3.52378591
  C        0.73414057      0.88309538      4.08993573
  C       -1.43205713      2.66385472     -0.35776419
  H       -1.88752016      1.75876971     -0.76599458
  H       -0.45054675      2.75129550     -0.83560691
  C       -0.32337732      3.24464815      3.83622494
  H        0.67228063      3.67968733      3.69722964
  H       -0.51823257      3.27671471      4.91396123
  C       -2.29309154      3.93237336     -0.59927670
  H       -1.84381578      4.56826155     -1.37173432
  H       -3.29090656      3.66712435     -0.96181919
  C       -0.44273414      0.22008140      1.35419973
  H       -1.52075083      0.01060635      1.30455210
  C       -2.48596199      6.24045626      0.57120940
  H       -1.60394515      6.56835153     -0.00000000
  C        0.14343388      4.75438074      1.16929846
  H        1.01030501      4.22160002      1.56889393
  H        0.25549139      4.78139675      0.08142680
  H        0.20602518      5.78666831      1.52884425
  C        0.77135003     -0.51137440      3.45528482
  C        0.30312559      0.72700541      5.58200703
  H       -0.76602586      0.47477531      5.60578265
  H        0.40629225      1.68952435      6.09403897
  C        0.21354478     -0.77898633      2.26543281
  H        0.24060101     -1.79662813      1.87589223
  C        2.15628564      1.50156220      4.02281814
  H        2.22217923      2.41650674      4.61959251
  H        2.91302445      0.81217357      4.40616747
  H        2.43464916      1.74477782      2.99281642
  C        1.46596442     -1.61024202      4.23748554
  H        1.33683248     -2.57343883      3.73421256
  H        2.54996411     -1.41405446      4.27155096
  C        1.06909067     -0.34692789      6.37001256
  H        2.13010071     -0.07172912      6.46444771
  H        0.67204951     -0.41759471      7.38903266
  C       -3.73606395      6.59463194     -0.27514249
  H       -3.81818632      5.89043773     -1.10840378
  H       -4.63456326      6.44049846      0.34276010
  C        0.96732683     -1.71033527      5.68676264
  H       -0.08113966     -2.03243548      5.68105539
  C       -2.50976818      7.01684199      1.90029851
  H       -3.30408812      6.64113602      2.55740204
  H       -2.69546135      8.08231703      1.73455393
  H       -1.56454359      6.94061365      2.44258803
  C       -3.75004916      8.02284929     -0.84457912
  H       -3.63326736      8.75065200     -0.03259740
  H       -2.87436241      8.15837122     -1.49387666
  C       -5.03483290      8.38886346     -1.61150145
  H       -4.98551818      9.45237547     -1.88899353
  H       -5.88843544      8.29554804     -0.92448158
  C       -5.34540887      7.57586163     -2.88660004
  H       -5.41593078      6.51390914     -2.61132588
  C       -4.24748553      7.71494395     -3.95301459
  H       -4.12113703      8.76523536     -4.24678582
  H       -4.50347109      7.14684179     -4.85457885
  H       -3.27819485      7.34956890     -3.59865103
  C       -6.70937073      7.99245243     -3.46022027
  H       -6.70147685      9.04827956     -3.76040743
  H       -6.96816047      7.39809937     -4.34395602
  H       -7.50960864      7.86265057     -2.72249797



