%Mem=256MB 
%NProc=12 

#P HF/6-31G* SCF(Conver=6) NoSymm Test 
   Pop=chelpg IOp(6/33=2) GFInput GFPrint 

MEP - Input generated by R.E.D.-III.x MOLECULE 

0 1 
  O        0.00000000      0.00000000      0.00000000
  H        0.96763195      0.00000000      0.00000000
  O        1.63597905     -2.66697472      6.44580717
  H        2.57408830     -2.43766431      6.50522102
  C       -1.19183812      4.12368556      1.54914075
  C       -1.28566708      2.62516130      1.13943987
  H       -2.25765305      2.28360088      1.53604727
  C       -0.23792635      1.70058505      1.78473508
  H        0.76870397      1.99570037      1.45356989
  C       -0.32646984      1.81428453      3.33252026
  H       -1.30858094      1.39380126      3.60491285
  C       -2.37626355      4.70954565      0.70489180
  H       -3.29352912      4.37428266      1.21139714
  C       -1.35951491      4.17731114      3.08017355
  H       -2.37495837      3.84119392      3.33538979
  H       -1.26479973      5.19850734      3.46303748
  C        0.73111663      0.92950601      4.08042298
  C       -1.43105618      2.65954391     -0.39096133
  H       -1.90456811      1.75694991     -0.78413556
  H       -0.44889037      2.71984063     -0.87155156
  C       -0.32911493      3.28746519      3.80144035
  H        0.66672239      3.72201281      3.66272258
  H       -0.52884812      3.32950261      4.87791651
  C       -2.26589872      3.94260893     -0.65327241
  H       -1.77980350      4.57248879     -1.40782766
  H       -3.25863501      3.70360432     -1.04826298
  C       -0.44283540      0.23587084      1.35140694
  H       -1.52102511      0.02668329      1.30391005
  C       -2.49117008      6.24248803      0.51321678
  H       -1.57766853      6.57697162      0.00000000
  C        0.14628314      4.76976638      1.12350551
  H        1.01188247      4.24608550      1.53765389
  H        0.26701684      4.78192199      0.03627026
  H        0.20153879      5.80727755      1.46999461
  C        0.76795086     -0.47246262      3.46225481
  C        0.29994964      0.79188457      5.57422682
  H       -0.76973294      0.54219120      5.60112750
  H        0.40533123      1.76011795      6.07482439
  C        0.21194547     -0.75319969      2.27457751
  H        0.23874645     -1.77525113      1.89672375
  C        2.15364824      1.54627709      4.00616137
  H        2.21878399      2.47006074      4.58921295
  H        2.90937268      0.86229801      4.40107262
  H        2.43366276      1.77375386      2.97302964
  C        1.46061360     -1.56273366      4.25805494
  H        1.33091619     -2.53165409      3.76603397
  H        2.54476213     -1.36737315      4.29093226
  C        1.06372987     -0.27399227      6.37513445
  H        2.12514325      0.00063159      6.46710787
  H        0.66592414     -0.33208210      7.39465437
  C       -3.66069809      6.62863791     -0.43183474
  H       -3.61124799      7.71527302     -0.59238528
  H       -3.49681509      6.17534898     -1.41736733
  C        0.96038767     -1.64513935      5.70785560
  H       -0.08856825     -1.96566094      5.70491033
  C       -2.58763389      7.03113137      1.83295081
  H       -3.37649503      6.64155520      2.48612524
  H       -2.81377290      8.08526329      1.63284919
  H       -1.65158021      7.00275431      2.39650967
  C       -5.07908397      6.27174429      0.04384178
  H       -5.16111213      5.18622890      0.17792848
  H       -5.26227175      6.72044929      1.02762677
  C       -6.15263884      6.74952481     -0.94794767
  H       -5.94335702      6.30644773     -1.93246401
  H       -6.05031607      7.83666921     -1.07857965
  C       -7.62299839      6.44157271     -0.58037729
  H       -8.23095891      6.85735166     -1.39758320
  C       -8.06961652      7.14077373      0.71438990
  H       -7.55299139      6.73527340      1.59199523
  H       -9.14505160      7.00737397      0.87849520
  H       -7.86880353      8.21797104      0.67611417
  C       -7.91680481      4.93324090     -0.52285625
  H       -7.39411598      4.45067905      0.31109359
  H       -8.98863687      4.74979220     -0.38570876
  H       -7.60772064      4.43078952     -1.44701472



