%Mem=256MB 
%NProc=12 

#P HF/6-31G* SCF(Conver=6) NoSymm Test 
   Pop=chelpg IOp(6/33=2) GFInput GFPrint 

MEP - Input generated by R.E.D.-III.x MOLECULE 

0 1 
  O        0.00000000      0.00000000      0.00000000
  H       -0.22953260      0.13751652      0.92990190
  O       -3.05176278      6.48179347      0.00000000
  H       -3.05125665      6.68291204      0.94642036
  C        4.27208147      1.55117393     -0.41727518
  C        2.84223592      1.06600099     -0.79588850
  H        2.73625229      1.30406907     -1.86873721
  C        1.68845036      1.80930968     -0.09887829
  H        1.74097449      1.63664612      0.98619128
  C        1.80246275      3.33266190     -0.38497544
  H        1.62541550      3.44551760     -1.46729489
  C        5.13499086      0.57798171     -1.29503690
  H        5.04428884      0.94321784     -2.33063205
  C        4.34547251      3.04563408     -0.78885537
  H        4.25621637      3.14106113     -1.88073702
  H        5.30987031      3.48567702     -0.51687169
  C        0.68373596      4.18092109      0.31439050
  C        2.92753106     -0.46499356     -0.69872980
  H        2.15632486     -0.96497847     -1.28909759
  H        2.77964355     -0.79515936      0.33493478
  C        3.22874279      3.86159931     -0.11059356
  H        3.41517722      3.88071091      0.96866092
  H        3.30611541      4.90115711     -0.44800451
  C        4.36409609     -0.78225806     -1.19317377
  H        4.87525681     -1.46048085     -0.49918552
  H        4.34311809     -1.29192011     -2.16128093
  C        0.31882468      1.28434757     -0.57193424
  H        0.37105633      1.07475779     -1.64980633
  C        6.65204864      0.42832729     -1.00813525
  H        6.76135145     -0.00000000     -0.00000000
  C        4.58464391      1.34211745      1.08248248
  H        3.86142884      1.84212660      1.73205874
  H        4.58430952      0.28281556      1.35567198
  H        5.57261665      1.74251926      1.33227694
  C       -0.67975747      3.50998923      0.11577040
  C        0.63434236      5.59025908     -0.35474633
  H        0.64293200      5.45306514     -1.44487107
  H        1.54491328      6.14485179     -0.10464764
  C       -0.80740773      2.24437410     -0.30900356
  H       -1.80242127      1.82755089     -0.46481362
  C        0.94719218      4.33812205      1.83602860
  H        1.82038599      4.96959888      2.02674420
  H        0.09796778      4.80097070      2.34539690
  H        1.11743867      3.36720971      2.31130522
  C       -1.91203521      4.34435985      0.41099397
  H       -2.81710667      3.79471798      0.13450120
  H       -1.97859038      4.53893540      1.49377484
  C       -0.59063952      6.44137783      0.01404547
  H       -0.57498285      6.69515162      1.08444171
  H       -0.56510630      7.39054704     -0.53318606
  C        7.29266702     -0.57429648     -2.00255171
  H        6.62805462     -1.43470294     -2.12481923
  H        7.35607728     -0.09608879     -2.99258149
  C       -1.89098856      5.70369487     -0.30372518
  H       -1.95518460      5.53785140     -1.38605491
  C        7.41192298      1.76667689     -1.04326445
  H        7.23537937      2.29077477     -1.99091280
  H        8.49103445      1.61329879     -0.94742568
  H        7.11363912      2.43482924     -0.23213072
  C        8.68343414     -1.09002453     -1.59752425
  H        9.36275875     -0.24492255     -1.43329941
  H        8.60735624     -1.60317344     -0.62919009
  C        9.34377941     -2.01859386     -2.63410983
  H       10.36523870     -2.24917590     -2.29655065
  H        9.45561579     -1.46352512     -3.57683689
  C        8.62766510     -3.35233303     -2.93680493
  H        7.61274898     -3.12690629     -3.29404555
  C        8.50234764     -4.24640611     -1.69304138
  H        9.49269351     -4.48261029     -1.28218962
  H        8.01118077     -5.19436535     -1.94045316
  H        7.91748140     -3.77077534     -0.89912509
  C        9.35591786     -4.09916942     -4.06590446
  H       10.37974219     -4.35834697     -3.76664707
  H        8.83992926     -5.03081221     -4.32477632
  H        9.41963073     -3.48762575     -4.97332776



