%Mem=256MB 
%NProc=12 

#P HF/6-31G* SCF(Conver=6) NoSymm Test 
   Pop=chelpg IOp(6/33=2) GFInput GFPrint 

MEP - Input generated by R.E.D.-III.x MOLECULE 

0 1 
  O        6.09739799      3.76250028      0.00000000
  H        5.83005899      3.77395795     -0.92989651
  O        0.00000000      0.00000000      0.00000000
  H       -0.11019852     -0.16742656     -0.94656504
  C        8.82565681      0.12725456      0.41482804
  C        7.89550863      1.31631646      0.79322079
  H        7.67566555      1.17376880      1.86558586
  C        6.52326313      1.32439797      0.09636242
  H        6.66118726      1.44046678     -0.98874644
  C        5.78595666     -0.01367882      0.38326749
  H        5.57498767     -0.00968999      1.46540386
  C       10.07744226      0.47473902      1.29334304
  H        9.78292546      0.24548264      2.32859428
  C        8.07218661     -1.16407484      0.78851134
  H        7.94621077     -1.19483586      1.88053099
  H        8.64088606     -2.05863037      0.51557536
  C        4.38571719     -0.11268384     -0.31692875
  C        8.80428924      2.55324673      0.69814015
  H        8.44180801      3.38306146      1.30934241
  H        8.84090227      2.92834518     -0.33000943
  C        6.69007038     -1.23806047      0.11187861
  H        6.83441969     -1.35979693     -0.96708442
  H        6.18601399     -2.14913159      0.45295043
  C       10.19246008      2.02792672      1.15582256
  H       10.96455327      2.28797931      0.42191529
  H       10.50466949      2.48292959      2.10117302
  C        5.66271403      2.51199127      0.57034230
  H        5.82092442      2.65764135      1.64842463
  C       11.42128526     -0.24808171      1.02838305
  H       11.72381127     -0.00000000      0.00000000
  C        9.20134816      0.12649242     -1.08457814
  H        8.32243530      0.09515431     -1.73378171
  H        9.77534034      1.01517160     -1.36289385
  H        9.81363728     -0.74795115     -1.32911256
  C        3.61004137      1.19387682     -0.11722382
  C        3.57468256     -1.26726024      0.35064815
  H        3.65723646     -1.15882308      1.44093889
  H        4.03436444     -2.22871075      0.09871290
  C        4.19482055      2.32347964      0.30763844
  H        3.58922884      3.21610421      0.46434938
  C        4.52142079     -0.38672505     -1.83879121
  H        4.90953904     -1.39192689     -2.02993959
  H        3.55737211     -0.31153876     -2.34852299
  H        5.19355448      0.33493061     -2.31315536
  C        2.12186966      1.16825311     -0.41132496
  H        1.66414970      2.12266242     -0.13326317
  H        1.95883774      1.04301272     -1.49409538
  C        2.08357467     -1.31053570     -0.01759968
  H        1.95775016     -1.52996519     -1.08830738
  H        1.58670467     -2.12037297      0.52859034
  C       12.57052438      0.31288642      1.91528120
  H       13.48695258     -0.23981661      1.66311239
  H       12.75650520      1.34642970      1.59997632
  C        1.39760425      0.01725399      0.30254150
  H        1.43544228      0.18977744      1.38505943
  C       11.32749049     -1.78496775      1.09859051
  H       10.81658444     -2.12959931      2.00295445
  H       12.32770794     -2.23262088      1.09228677
  H       10.78514724     -2.19419285      0.24162874
  C       12.41453744      0.32688191      3.45254666
  H       13.18875772      1.00246725      3.83829066
  H       11.45841832      0.79035148      3.72394821
  C       12.55616892     -1.03189303      4.16129710
  H       13.44980758     -1.54130785      3.77237998
  H       11.70606193     -1.67444086      3.90460610
  C       12.66200807     -0.98230575      5.70506649
  H       12.71854715     -2.03027194      6.03504207
  C       11.41538328     -0.36813423      6.36364859
  H       11.32112042      0.69909921      6.13210715
  H       11.46334916     -0.46276129      7.45451968
  H       10.49885142     -0.86606871      6.02552478
  C       13.94409918     -0.28958453      6.19665243
  H       13.94385492      0.78168040      5.96505006
  H       14.04517835     -0.38649034      7.28371081
  H       14.83662898     -0.73106221      5.73782004



