%Mem=256MB 
%NProc=12 

#P HF/6-31G* SCF(Conver=6) NoSymm Test 
   Pop=chelpg IOp(6/33=2) GFInput GFPrint 

MEP - Input generated by R.E.D.-III.x MOLECULE 

0 1 
  O        6.11927213      3.72574233     -0.00000000
  H        5.85216908      3.73792569     -0.92995017
  O        0.00000000      0.00000000      0.00000000
  H       -0.11126630     -0.16638376     -0.94662136
  C        8.82849040      0.07561284      0.41523742
  C        7.90323456      1.26888963      0.79382693
  H        7.68353861      1.12855524      1.86666455
  C        6.53072546      1.28522076      0.09703891
  H        6.66941175      1.40097990     -0.98802030
  C        5.78567391     -0.04844559      0.38273125
  H        5.57495047     -0.04486561      1.46492346
  C       10.08488847      0.41180597      1.29298087
  H        9.80743499      0.15707637      2.32841352
  C        8.06511474     -1.21104640      0.78790405
  H        7.93762438     -1.24014056      1.87976885
  H        8.62653702     -2.11061207      0.51724670
  C        4.38488349     -0.13859631     -0.31745152
  C        8.81845593      2.49915336      0.69726958
  H        8.45059392      3.34109464      1.28813625
  H        8.87692776      2.85671980     -0.33623255
  C        6.68368611     -1.27641556      0.10928269
  H        6.82902204     -1.39586378     -0.96984174
  H        6.17491482     -2.18603665      0.44728332
  C       10.19200193      1.97159601      1.19105895
  H       10.99176507      2.25491782      0.49603442
  H       10.45750601      2.40798860      2.15876394
  C        5.67765719      2.47799303      0.57126902
  H        5.83747178      2.62331653      1.64914557
  C       11.43422899     -0.29840901      1.00732358
  H       11.76303487      0.00000000      0.00000000
  C        9.20424886      0.07665630     -1.08451752
  H        8.32507642      0.05721676     -1.73392098
  H        9.78763147      0.96062256     -1.35846068
  H        9.80823333     -0.80205479     -1.33337951
  C        3.61699624      1.17242946     -0.11664927
  C        3.56713876     -1.28880508      0.34940624
  H        3.65061493     -1.18183572      1.43977159
  H        4.02099616     -2.25280537      0.09655370
  C        4.20852593      2.29812250      0.30928086
  H        3.60825746      3.19419417      0.46681787
  C        4.51867892     -0.41229642     -1.83954608
  H        4.90163009     -1.41931393     -2.03154682
  H        3.55481911     -0.33195634     -2.34890700
  H        5.19434255      0.30624958     -2.31359307
  C        2.12872267      1.15598023     -0.41070118
  H        1.67674884      2.11291313     -0.13192023
  H        1.96493879      1.03257003     -1.49356868
  C        2.07574870     -1.32284084     -0.01856565
  H        1.94837492     -1.54079474     -1.08938568
  H        1.57408011     -2.13002051      0.52717221
  C       12.51589679      0.18987866      2.00328626
  H       12.47973811      1.28297661      2.07090572
  H       12.26468304     -0.18448508      3.00779645
  C        1.39770704      0.00879588      0.30243688
  H        1.43664895      0.18050711      1.38503875
  C       11.33493681     -1.83397562      1.03965569
  H       10.92426597     -2.17972096      1.99675750
  H       12.31830945     -2.29709563      0.91547434
  H       10.69776438     -2.22461997      0.24316811
  C       13.96074589     -0.20867502      1.65903965
  H       14.06243604     -1.29979877      1.65853169
  H       14.18388635      0.12427974      0.63619507
  C       14.97806768      0.39834240      2.63919213
  H       14.71452935      0.08153090      3.65879015
  H       14.86974871      1.49251771      2.62557606
  C       16.46617705      0.05518004      2.39476235
  H       17.02893360      0.58000032      3.18100217
  C       16.98132191      0.58037485      1.04446003
  H       16.51256155      0.05857371      0.20215920
  H       18.06409052      0.43470322      0.95682769
  H       16.77810912      1.65159689      0.92914062
  C       16.76348889     -1.44520566      2.55369666
  H       16.28743996     -2.03815235      1.76421246
  H       17.84132397     -1.63668830      2.50008005
  H       16.40488710     -1.82314525      3.51841120



