%Mem=256MB 
%NProc=12 

#P HF/6-31G* SCF(Conver=6) NoSymm Test 
   Pop=chelpg IOp(6/33=2) GFInput GFPrint 

MEP - Input generated by R.E.D.-III.x MOLECULE 

0 1 
  O        7.12711221      0.87850850     -0.00000000
  H        7.53274521      0.00000000     -0.00000000
  O        8.70564313     -0.15188987     -6.91425139
  H        8.87843606     -1.10382584     -6.92517946
  C        2.66831137      0.10193927     -0.49140669
  C        4.02777364      0.84849859     -0.44754996
  H        3.82919265      1.83198705     -0.90720867
  C        5.13382471      0.21799741     -1.31040652
  H        5.37444927     -0.78544578     -0.92975208
  C        4.64182729      0.11079592     -2.78399656
  H        4.54755133      1.15075577     -3.13772106
  C        1.83803202      1.01084745      0.46801188
  H        1.70811126      1.94500053     -0.09781025
  C        2.18561032      0.10329118     -1.95138653
  H        1.99170942      1.14125306     -2.25834036
  H        1.23573482     -0.43755426     -2.05858818
  C        5.69220974     -0.56242737     -3.73591716
  C        4.26159356      1.11266242      1.05343915
  H        4.92157633      1.96640874      1.22424960
  H        4.74935159      0.25418569      1.52692677
  C        3.23166051     -0.52189245     -2.89467129
  H        3.29003790     -1.59638666     -2.69260855
  H        2.87185088     -0.42903479     -3.92522714
  C        2.82892317      1.33172471      1.62992451
  H        2.66132244      0.67864229      2.49101107
  H        2.69057899      2.35675881      1.98972241
  C        6.43184811      1.04564037     -1.25133764
  H        6.17243499      2.11394689     -1.25517118
  C        0.39832494      0.56481553      0.85708285
  H        0.00000000      0.00000000      0.00000000
  C        2.77221187     -1.34706829      0.03384180
  H        3.46058769     -1.95270957     -0.56132920
  H        3.12358069     -1.38720885      1.06846434
  H        1.79462283     -1.83959766     -0.00553519
  C        7.08324957      0.02800243     -3.47839706
  C        5.29831590     -0.25227528     -5.21420731
  H        5.06859678      0.81950520     -5.29061729
  H        4.37581696     -0.78618496     -5.46535250
  C        7.36851882      0.76002236     -2.39152104
  H        8.36589681      1.18414461     -2.27566957
  C        5.75534630     -2.09948598     -3.52752544
  H        4.83879115     -2.58717110     -3.87337717
  H        6.58561703     -2.54648023     -4.08041971
  H        5.89895580     -2.35077059     -2.47219571
  C        8.15202331     -0.23702107     -4.52202684
  H        9.06415204      0.31689505     -4.27933605
  H        8.42042036     -1.30588373     -4.51700626
  C        6.37414493     -0.59022912     -6.25801957
  H        6.55047221     -1.67571323     -6.29133585
  H        6.03071562     -0.29808166     -7.25689184
  C        0.29390785     -0.35423134      2.09799919
  H        1.13322222     -1.05650072      2.12522076
  H        0.38400273      0.25751576      3.00698683
  C        7.69119884      0.11851891     -5.94322963
  H        7.54055560      1.20303821     -6.00775524
  C       -0.50054439      1.80589476      1.03477219
  H       -0.11528484      2.45373184      1.83204087
  H       -1.52775789      1.53361514      1.29785320
  H       -0.54254510      2.39955764      0.11478672
  C       -1.00913906     -1.16840095      2.16892994
  H       -1.87224200     -0.49257896      2.14191208
  H       -1.08104544     -1.79535676      1.26975906
  C       -1.08231113     -2.04837354      3.42709393
  H       -0.99206789     -1.40225189      4.31228349
  H       -0.20366786     -2.70953189      3.44527867
  C       -2.34895103     -2.92058715      3.59071624
  H       -2.21697783     -3.46879203      4.53535126
  C       -2.49361055     -3.97064327      2.47665115
  H       -2.69200096     -3.50436618      1.50468316
  H       -3.32633188     -4.65118984      2.68805938
  H       -1.58463993     -4.57585750      2.37819073
  C       -3.63143934     -2.08372391      3.73072741
  H       -3.87050225     -1.55130926      2.80289040
  H       -4.48927325     -2.72232977      3.97061650
  H       -3.53652458     -1.33839052      4.52918805



