%Mem=256MB 
%NProc=12 

#P HF/6-31G* SCF(Conver=6) NoSymm Test 
   Pop=chelpg IOp(6/33=2) GFInput GFPrint 

MEP - Input generated by R.E.D.-III.x MOLECULE 

0 1 
  O        7.12077927      0.78111794      0.00000000
  H        7.69189213      0.00000000     -0.00000000
  O       10.34837278      1.13441530     -6.38645266
  H       10.71710670      0.24256114     -6.45569050
  C        3.11391531     -0.66567825     -1.64805556
  C        4.26657928      0.27812380     -1.19048797
  H        3.98259509      1.27760868     -1.56213053
  C        5.64077681     -0.00808200     -1.82191458
  H        5.99726317     -0.99838118     -1.50314574
  C        5.51986861      0.02260523     -3.37241747
  H        5.28411314      1.06832533     -3.63038978
  C        1.93967124     -0.04348347     -0.81493832
  H        1.77701010      0.94157033     -1.27433983
  C        2.99891748     -0.53091031     -3.17749965
  H        2.68586048      0.49339346     -3.42377761
  H        2.22923468     -1.19980469     -3.58036891
  C        6.87045985     -0.29590644     -4.10425659
  C        4.12448879      0.32652299      0.34274360
  H        4.56779908      1.22790419      0.77204101
  H        4.64678908     -0.51798765      0.80466675
  C        4.33643064     -0.83527406     -3.87853686
  H        4.56656248     -1.89842175     -3.75109985
  H        4.20705020     -0.68135742     -4.95551949
  C        2.59021595      0.23614586      0.57663157
  H        2.35341301     -0.55796489      1.29228127
  H        2.18667411      1.16117307      1.00342897
  C        6.69272888      1.01723209     -1.35598242
  H        6.22330583      2.00987612     -1.30322630
  C        0.51852526     -0.66736810     -0.70506543
  H        0.00000000      0.00000000      0.00000000
  C        3.39291261     -2.13744889     -1.26315267
  H        4.38305506     -2.46600254     -1.58978713
  H        3.34134357     -2.29915797     -0.18369755
  H        2.66409775     -2.80499769     -1.73185398
  C        8.01437103      0.48931742     -3.45291565
  C        6.75234637      0.16161029     -5.59205623
  H        6.32450567      1.17354673     -5.60704348
  H        6.04050768     -0.48414719     -6.11692031
  C        7.89334616      1.08529433     -2.25765207
  H        8.72835308      1.65959347     -1.85639368
  C        7.20921542     -1.80982910     -4.05275531
  H        6.51029725     -2.39556246     -4.65770362
  H        8.21308982     -2.01044720     -4.43592353
  H        7.17429842     -2.18937201     -3.02696750
  C        9.31666521      0.58510933     -4.22527680
  H       10.01521151      1.25095595     -3.70915855
  H        9.79748170     -0.40563293     -4.26850977
  C        8.07664533      0.18691114     -6.37092350
  H        8.48133117     -0.83078724     -6.47539101
  H        7.90600841      0.56176541     -7.38650799
  C       -0.30082382     -0.64763966     -2.01914699
  H        0.18276986     -1.30634892     -2.75180384
  H       -1.27478085     -1.11165708     -1.80572469
  C        9.11271325      1.06501771     -5.66992882
  H        8.75386795      2.10136150     -5.65333655
  C        0.42190114     -2.07561418     -0.08371295
  H        0.71338689     -2.85891573     -0.78966017
  H       -0.61465483     -2.27621523      0.21039674
  H        1.04016796     -2.18547185      0.81191533
  C       -0.56590023      0.71905542     -2.67977080
  H        0.38071357      1.20025721     -2.95750040
  H       -1.09090063      0.52895450     -3.62412270
  C       -1.39225540      1.69138420     -1.82392132
  H       -0.86361101      1.88260150     -0.88095169
  H       -2.34410588      1.21209196     -1.54635414
  C       -1.69527236      3.05263532     -2.48501085
  H       -0.73580216      3.48553317     -2.80844840
  C       -2.32366692      4.01757061     -1.46685689
  H       -3.28481920      3.63081243     -1.10439689
  H       -2.50939899      5.00152929     -1.91239228
  H       -1.67305868      4.16039091     -0.59647592
  C       -2.59533635      2.92292155     -3.72475400
  H       -3.56082876      2.47375454     -3.45752734
  H       -2.79807623      3.90594704     -4.16487886
  H       -2.14205941      2.30183667     -4.50368382



