%Mem=256MB 
%NProc=12 

#P HF/6-31G* SCF(Conver=6) NoSymm Test 
   Pop=chelpg IOp(6/33=2) GFInput GFPrint 

MEP - Input generated by R.E.D.-III.x MOLECULE 

0 1 
  O        6.09789081      3.76157671      0.00000000
  H        5.83178042      3.77151466     -0.93027140
  O        0.00000000      0.00000000      0.00000000
  H       -0.10963809     -0.16900478     -0.94635029
  C        8.82570091      0.12728746      0.42333192
  C        7.89424146      1.31611405      0.79961860
  H        7.67239808      1.17356475      1.87161636
  C        6.52317685      1.32378856      0.10032391
  H        6.66285810      1.43884251     -0.98471473
  C        5.78572371     -0.01420415      0.38733086
  H        5.57388842     -0.00964472      1.46929227
  C       10.07595129      0.47462847      1.30419922
  H        9.78207749      0.23810122      2.33751268
  C        8.07155107     -1.16377638      0.79692380
  H        7.94391425     -1.19391170      1.88871787
  H        8.64056958     -2.05885873      0.52586769
  C        4.38606741     -0.11373865     -0.31402169
  C        8.80298929      2.55298211      0.70696665
  H        8.43605219      3.38519228      1.31216867
  H        8.84749517      2.92396045     -0.32241403
  C        6.69070921     -1.23831154      0.11764262
  H        6.83716104     -1.36009232     -0.96104750
  H        6.18624091     -2.14948122      0.45781559
  C       10.18737345      2.02907655      1.17695837
  H       10.96773305      2.29727519      0.45481009
  H       10.48554947      2.47823028      2.12989570
  C        5.66231013      2.51200329      0.57178027
  H        5.81946329      2.65924593      1.64980212
  C       11.42256066     -0.24118200      1.03190068
  H       11.71694258     -0.00000000      0.00000000
  C        9.20387866      0.12457139     -1.07533932
  H        8.32599765      0.09328991     -1.72595565
  H        9.77957172      1.01227490     -1.35349496
  H        9.81574953     -0.75087318     -1.31774600
  C        3.61032751      1.19307367     -0.11617559
  C        3.57433643     -1.26761264      0.35398323
  H        3.65645123     -1.15844765      1.44422156
  H        4.03375539     -2.22948147      0.10295072
  C        4.19469320      2.32320932      0.30788783
  H        3.58894122      3.21599951      0.46298970
  C        4.52276142     -0.38906905     -1.83550138
  H        4.91296223     -1.39365717     -2.02551617
  H        3.55863399     -0.31640227     -2.34550758
  H        5.19344325      0.33359060     -2.31031778
  C        2.12237655      1.16727063     -0.41147360
  H        1.66462269      2.12214282     -0.13506284
  H        1.96009961      1.04060050     -1.49416826
  C        2.08331526     -1.31086739     -0.01471683
  H        1.95773981     -1.53175405     -1.08515273
  H        1.58613140     -2.11993595      0.53233162
  C       12.57094785      0.30240920      1.92575224
  H       13.49897407     -0.17625927      1.58639763
  H       12.70294908      1.37524192      1.73624270
  C        1.39740046      0.01736708      0.30341585
  H        1.43458672      0.19123731      1.38574687
  C       11.34565706     -1.77605632      1.13751825
  H       10.89882677     -2.09904449      2.08448448
  H       12.34895725     -2.21443374      1.07757082
  H       10.75372177     -2.21317439      0.32942500
  C       12.41653045      0.08870126      3.44096353
  H       11.47120030      0.53282150      3.77752491
  H       12.33920694     -0.98233438      3.66443326
  C       13.54717597      0.71408627      4.28036530
  H       13.29052061      0.61216550      5.34538399
  H       13.57382415      1.79469160      4.07816841
  C       14.96757922      0.14557742      4.07452742
  H       15.23478393      0.25768167      3.01408969
  C       15.05891761     -1.34719868      4.42880061
  H       14.77935067     -1.51606581      5.47699881
  H       16.08090823     -1.71950502      4.29419221
  H       14.40049420     -1.96121080      3.80589182
  C       15.98574063      0.95622292      4.89261972
  H       15.77321846      0.88065097      5.96688976
  H       17.00696640      0.59295061      4.73007350
  H       15.96037916      2.01824530      4.62270394



