%Mem=256MB 
%NProc=12 

#P HF/6-31G* SCF(Conver=6) NoSymm Test 
   Pop=chelpg IOp(6/33=2) GFInput GFPrint 

MEP - Input generated by R.E.D.-III.x MOLECULE 

0 1 
  O        0.00000000      0.00000000      0.00000000
  H        0.96762313      0.00000000      0.00000000
  O        1.64719541     -2.74907828      6.40779101
  H        2.58510418     -2.51943401      6.46904321
  C       -1.20299794      4.09955660      1.60426066
  C       -1.29330563      2.60577124      1.17619765
  H       -2.26438207      2.25568137      1.56787615
  C       -0.24158627      1.67587011      1.80727894
  H        0.76323799      1.97839438      1.47759320
  C       -0.32629154      1.76951811      3.35652128
  H       -1.30727854      1.34473297      3.62627150
  C       -2.39210431      4.69696469      0.77397752
  H       -3.31271991      4.37932561      1.28944283
  C       -1.36424612      4.13302073      3.13693252
  H       -2.37771232      3.79009703      3.39099197
  H       -1.27196160      5.14902504      3.53353722
  C        0.73388725      0.87686989      4.09110674
  C       -1.43815487      2.66273250     -0.35252352
  H       -1.88671515      1.75589054     -0.76450975
  H       -0.45712078      2.75950567     -0.82962470
  C       -0.32893583      3.23690630      3.84296127
  H        0.66567596      3.67466284      3.70488361
  H       -0.52380175      3.26597412      4.92074982
  C       -2.30897350      3.92563475     -0.58836472
  H       -1.87156878      4.56489789     -1.36449197
  H       -3.30683967      3.65163442     -0.94405297
  C       -0.44283727      0.21647502      1.35473355
  H       -1.52044301      0.00491723      1.30493829
  C       -2.49558815      6.23128818      0.57619637
  H       -1.61267539      6.54494939      0.00000000
  C        0.13323016      4.75082858      1.17841822
  H        1.00084430      4.21609205      1.57375635
  H        0.24331402      4.78335386      0.09051496
  H        0.19670605      5.78116281      1.54322198
  C        0.77265751     -0.51667156      3.45442009
  C        0.30456168      0.71867934      5.58350976
  H       -0.76457091      0.46643522      5.60824490
  H        0.40842180      1.68046146      6.09675437
  C        0.21533330     -0.78310391      2.26408629
  H        0.24375992     -1.80009178      1.87293976
  C        2.15514711      1.49732621      4.02344363
  H        2.21937383      2.41300649      4.61923006
  H        2.91276986      0.80941869      4.40777960
  H        2.43331232      1.73975584      2.99319155
  C        1.46826091     -1.61596994      4.23512757
  H        1.34002937     -2.57858658      3.73050423
  H        2.55206968     -1.41899388      4.26982295
  C        1.07125934     -0.35621181      6.36944529
  H        2.13226323     -0.08093798      6.46371367
  H        0.67476730     -0.42847704      7.38857272
  C       -3.75695297      6.59705574     -0.26709170
  H       -4.18880736      5.68998980     -0.70219139
  H       -4.53260131      6.99432154      0.40150385
  C        0.96942700     -1.71852727      5.68413490
  H       -0.07905945     -2.04052224      5.67778051
  C       -2.49858774      7.02262090      1.89708495
  H       -3.29288406      6.66559851      2.56448561
  H       -2.68059196      8.08575227      1.71248080
  H       -1.55037395      6.94515753      2.43498865
  C       -3.51066066      7.58081992     -1.42963935
  H       -2.73889459      7.14991281     -2.08232895
  H       -4.41965892      7.63032102     -2.04286998
  C       -3.07379359      9.00911238     -1.05357875
  H       -2.79356938      9.53799871     -1.97666779
  H       -2.15603031      8.95999066     -0.45191867
  C       -4.11049125      9.87556458     -0.30631486
  H       -4.42542109      9.33754996      0.59918206
  C       -5.36744554     10.14517350     -1.14949976
  H       -5.10755036     10.66886588     -2.07875034
  H       -6.07763845     10.77485396     -0.60155428
  H       -5.88946463      9.22238446     -1.42181555
  C       -3.47135372     11.19987372      0.14196629
  H       -3.13379914     11.78344401     -0.72426614
  H       -4.18372781     11.81745688      0.70083743
  H       -2.60057778     11.02692046      0.78495909



