%Mem=256MB 
%NProc=12 

#P HF/6-31G* SCF(Conver=6) NoSymm Test 
   Pop=chelpg IOp(6/33=2) GFInput GFPrint 

MEP - Input generated by R.E.D.-III.x MOLECULE 

0 1 
  O        0.00000000      0.00000000      0.00000000
  H        0.96763022     -0.00000000     -0.00000000
  O        1.62476887     -2.79077641      6.39531203
  H        2.56219256     -2.56089020      6.46279314
  C       -1.19842229      4.09387223      1.63390539
  C       -1.28092001      2.60424580      1.18321978
  H       -2.25408028      2.24509762      1.55970603
  C       -0.23685867      1.66696478      1.81599730
  H        0.77224277      1.96356582      1.49476476
  C       -0.33119417      1.75194650      3.36624921
  H       -1.31444997      1.32654957      3.62678045
  C       -2.39690157      4.67003297      0.80275851
  H       -3.28624611      4.22434172      1.26899407
  C       -1.37173532      4.11354961      3.16377788
  H       -2.38337457      3.76384189      3.41333085
  H       -1.28362030      5.13116003      3.56225671
  C        0.72321545      0.85211437      4.10083964
  C       -1.40946426      2.68329168     -0.34971692
  H       -1.87406011      1.79010671     -0.77364413
  H       -0.42137843      2.76146805     -0.81552467
  C       -0.33586770      3.21566698      3.86653865
  H        0.65803866      3.65651629      3.73508260
  H       -0.53420952      3.23380461      4.94387590
  C       -2.24720125      3.97143325     -0.58569302
  H       -1.75359319      4.62720747     -1.31024351
  H       -3.23500741      3.74556867     -1.00268497
  C       -0.44310942      0.21078109      1.35531285
  H       -1.52138911      0.00313539      1.30356735
  C       -2.73053798      6.18592282      0.68741282
  H       -3.59230404      6.20594959      0.00000000
  C        0.15285585      4.73647170      1.24301537
  H        1.00368763      4.13538320      1.57458167
  H        0.25218790      4.86468375      0.16236824
  H        0.25987198      5.72296397      1.70343409
  C        0.76424501     -0.53686134      3.45431743
  C        0.28431276      0.68235881      5.58921823
  H       -0.78484635      0.42955437      5.60507975
  H        0.38460663      1.64005383      6.11070690
  C        0.21112104     -0.79520202      2.26027235
  H        0.24024539     -1.80964719      1.86262673
  C        2.14532437      1.47187935      4.04700405
  H        2.20578228      2.38383947      4.64884447
  H        2.89988479      0.78121056      4.43236919
  H        2.43080121      1.72063450      3.02027536
  C        1.45626691     -1.64183492      4.23001887
  H        1.33079519     -2.60054488      3.71734155
  H        2.53982766     -1.44489301      4.27159139
  C        1.04659480     -0.39830321      6.37167875
  H        2.10682282     -0.12314171      6.47441655
  H        0.64394203     -0.47841029      7.38779333
  C       -3.22054499      6.84586099      1.99846105
  H       -2.41832174      6.82432881      2.74807599
  H       -3.39402404      7.91037403      1.78429284
  C        0.94986175     -1.75557690      5.67561826
  H       -0.09823879     -2.07857963      5.66124167
  C       -1.65769817      7.08671310      0.04228391
  H       -0.84532561      7.32045388      0.73660185
  H       -2.10989041      8.03906317     -0.25719278
  H       -1.21427801      6.64229474     -0.85335785
  C       -4.50904146      6.27115180      2.60764879
  H       -5.28626360      6.24798665      1.83160351
  H       -4.34859157      5.23197041      2.91552155
  C       -4.99821434      7.09253800      3.81189120
  H       -5.15364792      8.13186227      3.48814977
  H       -4.19514582      7.12725171      4.56248862
  C       -6.29026853      6.60239725      4.50622127
  H       -6.47807109      7.31040759      5.32702630
  C       -6.13266691      5.21010707      5.13983671
  H       -6.00342226      4.43155388      4.37913976
  H       -7.01927774      4.94699019      5.72798876
  H       -5.26490059      5.17201400      5.80893862
  C       -7.51598074      6.65123715      3.57889041
  H       -7.43504864      5.92371189      2.76304012
  H       -8.43319652      6.42007477      4.13250143
  H       -7.63801328      7.64433316      3.13060611



