%Mem=256MB 
%NProc=12 

#P HF/6-31G* SCF(Conver=6) NoSymm Test 
   Pop=chelpg IOp(6/33=2) GFInput GFPrint 

MEP - Input generated by R.E.D.-III.x MOLECULE 

0 1 
  O        0.00000000      0.00000000      0.00000000
  H       -0.29892033      0.15912033      0.90644466
  O       -1.43547057      7.02191432      0.00000000
  H       -1.49598936      7.19822410      0.94943058
  C        4.52079433      0.52029201      0.14830306
  C        3.08106407      0.37945777     -0.41241170
  H        3.15984320      0.66091492     -1.47660794
  C        2.05923918      1.36038728      0.18711431
  H        1.93971975      1.16086046      1.26214215
  C        2.56226894      2.81984677     -0.01776613
  H        2.53380040      2.98954855     -1.10675221
  C        5.23409096     -0.59549905     -0.67748358
  H        5.24822390     -0.19828301     -1.70301449
  C        5.00036875      1.94907914     -0.15718362
  H        5.06804252      2.07352143     -1.24765225
  H        6.00840507      2.12577585      0.24141295
  C        1.59976164      3.89468406      0.59936393
  C        2.81642208     -1.13936604     -0.38603778
  H        2.05721477     -1.43854275     -1.11245844
  H        2.43688727     -1.44994548      0.59306011
  C        4.03717850      3.00518280      0.41888579
  H        4.10589336      2.98585741      1.51140139
  H        4.38483027      3.99806080      0.11321594
  C        4.21183327     -1.77437865     -0.67400924
  H        4.45827131     -2.51574710      0.09147983
  H        4.22412219     -2.30534303     -1.63168626
  C        0.67189840      1.18905200     -0.46043770
  H        0.80259651      1.00434758     -1.53625750
  C        6.71760978     -0.93352430     -0.35056132
  H        7.18449787      0.00000000      0.00000000
  C        4.59360386      0.24783517      1.66703019
  H        3.98406022      0.94986380      2.24189978
  H        4.24974882     -0.75791736      1.92331399
  H        5.62387236      0.34946848      2.02485281
  C        0.14841935      3.57085444      0.22676994
  C        1.95706510      5.28988464     -0.00255228
  H        2.05964515      5.17837177     -1.09084822
  H        2.93627847      5.60789076      0.37047429
  C       -0.22283463      2.38128507     -0.26881386
  H       -1.26339921      2.21638432     -0.54825753
  C        1.71696954      3.95232082      2.14625643
  H        2.68558131      4.35451915      2.45857157
  H        0.94680604      4.59273823      2.58400007
  H        1.60012298      2.95891445      2.59000972
  C       -0.88013053      4.66746920      0.42988020
  H       -1.85116747      4.35398624      0.03426122
  H       -1.02178896      4.85010160      1.50746350
  C        0.93003255      6.39889401      0.27363966
  H        0.88195039      6.61928900      1.35049372
  H        1.23857668      7.32619045     -0.22229657
  C        6.93878947     -1.99727839      0.75316055
  H        6.17750473     -1.89804690      1.53138793
  H        6.79880720     -2.99847445      0.32019160
  C       -0.46138168      5.99716109     -0.21462982
  H       -0.43846940      5.87301168     -1.30418413
  C        7.45173913     -1.34671983     -1.64297240
  H        6.98017089     -2.22986700     -2.09164973
  H        8.50245595     -1.59209369     -1.45751870
  H        7.42788368     -0.54249483     -2.38673552
  C        8.32886143     -1.92562084      1.40836458
  H        9.10222989     -1.93163203      0.63003035
  H        8.43425340     -0.96034153      1.92231252
  C        8.63773941     -3.07755087      2.38220254
  H        9.68199495     -2.98503410      2.71608484
  H        8.58082055     -4.02544913      1.82776747
  C        7.74265893     -3.19196501      3.63463152
  H        6.69863567     -3.29224736      3.30497252
  C        7.83596199     -1.95134096      4.53710095
  H        8.86773199     -1.79548319      4.87838858
  H        7.20618442     -2.06604977      5.42671926
  H        7.51465389     -1.04010960      4.02229295
  C        8.09848740     -4.46077694      4.42604093
  H        9.13463737     -4.41928877      4.78602368
  H        7.44810758     -4.58086171      5.30002592
  H        7.99758391     -5.35938454      3.80662868



