%Mem=256MB 
%NProc=12 

#P HF/6-31G* SCF(Conver=6) NoSymm Test 
   Pop=chelpg IOp(6/33=2) GFInput GFPrint 

MEP - Input generated by R.E.D.-III.x MOLECULE 

0 1 
  O        6.70104441      0.90104237      0.00000000
  H        7.05379956     -0.00000000      0.00000000
  O        9.85195240      0.36795569     -6.41205896
  H        9.98013820     -0.58915895     -6.47256022
  C        2.44229862      0.51593328     -1.59552954
  C        3.80001963      1.14802283     -1.17096437
  H        3.76826562      2.17947007     -1.56342018
  C        5.04989204      0.51064901     -1.80430927
  H        5.13751490     -0.53513838     -1.47476651
  C        4.92887873      0.55508387     -3.35312615
  H        4.96386490      1.62344075     -3.62310216
  C        1.45239782      1.40261248     -0.76121679
  H        1.41288882      2.37706146     -1.27402262
  C        2.34971186      0.65377958     -3.12827065
  H        2.29608959      1.72233899     -3.38240440
  H        1.43835028      0.19480219     -3.52379039
  C        6.14636168     -0.10448807     -4.08994781
  C        3.69844637      1.26337423      0.35777246
  H        4.37519835      2.01744654      0.76601230
  H        3.97484604      0.31752858      0.83560284
  C        3.56180381      0.01931459     -3.83623314
  H        3.51968289     -1.06642186     -3.69725302
  H        3.46090702      0.18908506     -4.91396730
  C        2.20332690      1.60269336      0.59929055
  H        1.77499162      0.95250908      1.37174148
  H        2.08655624      2.62853307      0.96184323
  C        6.33470424      1.23307560     -1.35419919
  H        6.13675663      2.31326807     -1.30454816
  C       -0.01622409      0.94085822     -0.57120107
  H        0.00000000      0.00000000      0.00000000
  C        2.32616135     -0.96579895     -1.16931991
  H        3.13830725     -1.57877179     -1.56892201
  H        2.34185581     -1.08000932     -0.08144916
  H        1.38773708     -1.40041586     -1.52887111
  C        7.45842945      0.36922317     -3.45529068
  C        6.13457804      0.35379246     -5.58201265
  H        5.97967930      1.44131710     -5.60577104
  H        5.27591133     -0.09316353     -6.09405137
  C        7.50426958      0.98618810     -2.26543265
  H        8.46174166      1.33198018     -1.87588757
  C        6.08891746     -1.65423077     -4.02285430
  H        5.26096490     -2.04913271     -4.61963724
  H        7.00674071     -2.10756094     -4.40620697
  H        5.96391684     -2.00211856     -2.99285846
  C        8.73490171      0.12302560     -4.23749590
  H        9.58473500      0.59440814     -3.73421600
  H        8.94739950     -0.95789386     -4.27157612
  C        7.41384452      0.03206674     -6.37002339
  H        7.54438518     -1.05624944     -6.46447673
  H        7.33490197      0.42756257     -7.38903644
  C       -0.80176894      1.97579833      0.27516097
  H       -0.17597694      2.30898803      1.10842398
  H       -0.98580634      2.86865723     -0.34273518
  C        8.64632217      0.62385851     -5.68676406
  H        8.56402898      1.71759427     -5.68104080
  C       -0.74786027      0.67999261     -1.90029112
  H       -0.68760225      1.55662364     -2.55738369
  H       -1.80770248      0.46446204     -1.73454270
  H       -0.33227933     -0.17238055     -2.44259290
  C       -2.13679086      1.46813725      0.84459275
  H       -2.77193098      1.09407018      0.03260756
  H       -1.94374014      0.60330329      1.49388030
  C       -2.94600207      2.53105492      1.61152805
  H       -3.91834547      2.09741381      1.88901151
  H       -3.17029931      3.35994009      0.92451777
  C       -2.30218109      3.11662950      2.88663634
  H       -1.33901762      3.56944214      2.61137348
  C       -2.03144642      2.04355048      3.95304295
  H       -2.96340135      1.54301342      4.24681018
  H       -1.59575756      2.48901390      4.85460923
  H       -1.33786228      1.27416175      3.59867273
  C       -3.18734726      4.23485101      3.46025984
  H       -4.16764140      3.84259247      3.76042794
  H       -2.72825075      4.69249227      4.34400870
  H       -3.35819513      5.02734872      2.72254687



