%Mem=256MB 
%NProc=12 

#P HF/6-31G* SCF(Conver=6) NoSymm Test 
   Pop=chelpg IOp(6/33=2) GFInput GFPrint 

MEP - Input generated by R.E.D.-III.x MOLECULE 

0 1 
  O        5.54986953      4.53423657      0.00000000
  H        5.22025894      4.59682214     -0.90760962
  O        0.00000000      0.00000000      0.00000000
  H       -0.15509668     -0.10330853     -0.94943735
  C        8.72489110      1.27448483     -0.13675491
  C        7.69790949      2.29475596      0.42160653
  H        7.58098240      2.02957027      1.48648901
  C        6.28667215      2.17799380     -0.17854171
  H        6.32127579      2.40429767     -1.25431369
  C        5.75404906      0.72976534      0.03114423
  H        5.62210096      0.62102488      1.12031394
  C        9.98405319      1.69189467      0.68558426
  H        9.74667090      1.37714225      1.71235426
  C        8.19493582     -0.13482264      0.17556405
  H        8.17005195     -0.26905933      1.26668475
  H        8.86463008     -0.91021520     -0.22009414
  C        4.33042960      0.50201688     -0.58863312
  C        8.45186772      3.63940310      0.39171261
  H        8.05298979      4.35234395      1.11714214
  H        8.35267794      4.11793760     -0.58820923
  C        6.78073519     -0.34850574     -0.39822844
  H        6.84600510     -0.38477084     -1.49056527
  H        6.42285507     -1.33559213     -0.08563743
  C        9.93513859      3.25151881      0.67862972
  H       10.59293682      3.66938463     -0.08868140
  H       10.28121452      3.65768000      1.63495242
  C        5.31836472      3.18946041      0.46384665
  H        5.53369455      3.25313471      1.54002848
  C       11.34719923      1.01656234      0.35568079
  H       11.11837062     -0.00000000     -0.00000000
  C        8.95038186      1.43398040     -1.65662967
  H        8.03298962      1.27200628     -2.22850991
  H        9.31812026      2.43012005     -1.91737736
  H        9.68461433      0.70364715     -2.01346588
  C        3.40946215      1.67186902     -0.22369381
  C        3.72377042     -0.80206961      0.01800640
  H        3.87076384     -0.77497190      1.10657492
  H        4.28260860     -1.66922917     -0.34924272
  C        3.87200008      2.83014001      0.26925464
  H        3.16889609      3.61655343      0.54359531
  C        4.38958977      0.37610722     -2.13479267
  H        4.88550971     -0.55002358     -2.44117263
  H        3.38955254      0.36641121     -2.57601477
  H        4.92999578      1.21682578     -2.58048551
  C        1.91998708      1.47124019     -0.43079278
  H        1.36428445      2.32982643     -0.04127389
  H        1.69835345      1.41383778     -1.50880627
  C        2.22766129     -1.01388617     -0.26119990
  H        2.05405010     -1.16025189     -1.33772824
  H        1.87938124     -1.92482300      0.23873484
  C       12.18809866      1.70707916     -0.74499996
  H       11.53825325      2.09220974     -1.53730499
  H       12.69118977      2.58506704     -0.31529452
  C        1.40185567      0.17946416      0.21839112
  H        1.49449761      0.26657583      1.30782588
  C       12.17846597      0.86501882      1.64635791
  H       12.38146189      1.84540468      2.09512441
  H       13.14265454      0.38176642      1.45841404
  H       11.64734532      0.26175259      2.39104149
  C       13.24136723      0.79466773     -1.39612611
  H       13.90960439      0.38960796     -0.62684222
  H       12.72993164     -0.06792523     -1.84458951
  C       14.06906164      1.52565037     -2.46536364
  H       14.55770670      2.39279032     -1.99795388
  H       13.38336366      1.93653455     -3.22065665
  C       15.15067338      0.69402734     -3.19366621
  H       15.62729588      1.38059454     -3.90902437
  C       14.55678557     -0.46615756     -4.00972596
  H       14.11405054     -1.23137852     -3.36171559
  H       15.33097601     -0.95613729     -4.61123316
  H       13.77556680     -0.11407355     -4.69378764
  C       16.25335915      0.19450781     -2.24536044
  H       15.87081807     -0.54790557     -1.53544309
  H       17.06549718     -0.28021548     -2.80777743
  H       16.68576713      1.01914810     -1.66651521



