%Mem=256MB 
%NProc=12 

#P HF/6-31G* SCF(Conver=6) NoSymm Test 
   Pop=chelpg IOp(6/33=2) GFInput GFPrint 

MEP - Input generated by R.E.D.-III.x MOLECULE 

0 1 
  O        6.70104549      0.90103893      0.00000000
  H        7.05381175      0.00000000     -0.00000000
  O        9.85195706      0.36790979     -6.41205101
  H        9.98015132     -0.58920563     -6.47253682
  C        2.44230026      0.51591950     -1.59552979
  C        3.80001865      1.14801721     -1.17097110
  H        3.76826265      2.17945921     -1.56344084
  C        5.04989305      0.51063760     -1.80430700
  H        5.13751541     -0.53514672     -1.47475152
  C        4.92888301      0.55505416     -3.35312283
  H        4.96386563      1.62340807     -3.62311365
  C        1.45239755      1.40260820     -0.76122805
  H        1.41288813      2.37705073     -1.27404700
  C        2.34971570      0.65374293     -3.12827238
  H        2.29608789      1.72229907     -3.38242198
  H        1.43835569      0.19475658     -3.52378591
  C        6.14636944     -0.10452276     -4.08993573
  C        3.69844449      1.26338796      0.35776419
  H        4.37519311      2.01746803      0.76599458
  H        3.97484677      0.31754955      0.83560691
  C        3.56180947      0.01927270     -3.83622494
  H        3.51969363     -1.06646211     -3.69722964
  H        3.46091223      0.18902717     -4.91396123
  C        2.20332460      1.60270534      0.59927670
  H        1.77499035      0.95252668      1.37173432
  H        2.08654924      2.62854907      0.96181919
  C        6.33470487      1.23306889     -1.35419973
  H        6.13675526      2.31326134     -1.30455210
  C       -0.01622450      0.94085374     -0.57120940
  H        0.00000000      0.00000000      0.00000000
  C        2.32616372     -0.96580839     -1.16929846
  H        3.13830881     -1.57878572     -1.56889393
  H        2.34185936     -1.08000296     -0.08142680
  H        1.38773931     -1.40042882     -1.52884425
  C        7.45843378      0.36920470     -3.45528482
  C        6.13458358      0.35373381     -5.58200703
  H        5.97967848      1.44125819     -5.60578265
  H        5.27591854     -0.09323422     -6.09403897
  C        7.50427126      0.98618263     -2.26543281
  H        8.46174029      1.33198594     -1.87589223
  C        6.08893253     -1.65426429     -4.02281814
  H        5.26097922     -2.04918046     -4.61959251
  H        7.00675692     -2.10759496     -4.40616747
  H        5.96393743     -2.00213827     -2.99281642
  C        8.73490738      0.12300496     -4.23748554
  H        9.58473759      0.59439841     -3.73421256
  H        8.94741121     -0.95791456     -4.27155096
  C        7.41385094      0.03200370     -6.37001256
  H        7.54440005     -1.05631316     -6.46444771
  H        7.33490664      0.42748225     -7.38903266
  C       -0.80176946      1.97580033      0.27514249
  H       -0.17597860      2.30899602      1.10840378
  H       -0.98580599      2.86865457     -0.34276010
  C        8.64632573      0.62381570     -5.68676264
  H        8.56402314      1.71755096     -5.68105539
  C       -0.74785643      0.67997781     -1.90029851
  H       -0.68758937      1.55660032     -2.55740204
  H       -1.80770031      0.46445530     -1.73455393
  H       -0.33227769     -0.17240391     -2.44258803
  C       -2.13679200      1.46814376      0.84457912
  H       -2.77193093      1.09406714      0.03259740
  H       -1.94374149      0.60331720      1.49387666
  C       -2.94600449      2.53106933      1.61150145
  H       -3.91834459      2.09742840      1.88899353
  H       -3.17030561      3.35994452      0.92448158
  C       -2.30218079      3.11666343      2.88660004
  H       -1.33902429      3.56948349      2.61132588
  C       -2.03142576      2.04359714      3.95301459
  H       -2.96337125      1.54304386      4.24678582
  H       -1.59574535      2.48907582      4.85457885
  H       -1.33782641      1.27421864      3.59865103
  C       -3.18735475      4.23487939      3.46022027
  H       -4.16763948      3.84261026      3.76040743
  H       -2.72825239      4.69253944      4.34395602
  H       -3.35822558      5.02736434      2.72249797



