%Mem=256MB 
%NProc=12 

#P HF/6-31G* SCF(Conver=6) NoSymm Test 
   Pop=chelpg IOp(6/33=2) GFInput GFPrint 

MEP - Input generated by R.E.D.-III.x MOLECULE 

0 1 
  O        7.12053456      0.78143391      0.00000000
  H        7.69121624     -0.00000000     -0.00000000
  O       10.34820707      1.13596805     -6.38607027
  H       10.71717775      0.24420695     -6.45525003
  C        3.11384817     -0.66584653     -1.64835260
  C        4.26624897      0.27809555     -1.19070316
  H        3.98222101      1.27750384     -1.56238520
  C        5.64054334     -0.00785834     -1.82195260
  H        5.99721560     -0.99809041     -1.50320395
  C        5.51961968      0.02285211     -3.37253142
  H        5.28359655      1.06853476     -3.63037207
  C        1.93958746     -0.04353932     -0.81537998
  H        1.77819387      0.94211307     -1.27377081
  C        2.99883169     -0.53134380     -3.17780544
  H        2.68552699      0.49287161     -3.42414638
  H        2.22938735     -1.20056502     -3.58060324
  C        6.87029471     -0.29534435     -4.10440185
  C        4.12406885      0.32623769      0.34264261
  H        4.56613642      1.22824311      0.77192501
  H        4.64759244     -0.51754593      0.80450129
  C        4.33650391     -0.83535354     -3.87872095
  H        4.56697229     -1.89840659     -3.75113739
  H        4.20726761     -0.68153268     -4.95573598
  C        2.58987108      0.23376349      0.57663586
  H        2.35396598     -0.56230810      1.29044356
  H        2.18532195      1.15733852      1.00563300
  C        6.69237871      1.01758414     -1.35595112
  H        6.22286811      2.01017596     -1.30311427
  C        0.51776931     -0.66595922     -0.70700868
  H        0.00000000      0.00000000      0.00000000
  C        3.39323079     -2.13753910     -1.26335208
  H        4.38385264     -2.46543434     -1.58921162
  H        3.34086502     -2.29938061     -0.18395194
  H        2.66527487     -2.80554134     -1.73272760
  C        8.01410306      0.48981938     -3.45284356
  C        6.75224477      0.16264817     -5.59210082
  H        6.32443580      1.17460204     -5.60675508
  H        6.04036812     -0.48290455     -6.11715492
  C        7.89297744      1.08575074     -2.25757705
  H        8.72793773      1.66008519     -1.85626901
  C        7.20908378     -1.80929212     -4.05336191
  H        6.51088985     -2.39474131     -4.65943471
  H        8.21343011     -2.00963442     -4.43543444
  H        7.17297367     -2.18946895     -3.02785096
  C        9.31645497      0.58598133     -4.22510620
  H       10.01486487      1.25180136     -3.70876687
  H        9.79743561     -0.40467357     -4.26860064
  C        8.07657976      0.18815063     -6.37087901
  H        8.48135410     -0.82950525     -6.47545098
  H        7.90600702      0.56317628     -7.38641084
  C       -0.30206871     -0.64030521     -2.02060840
  H        0.17938943     -1.29773008     -2.75590187
  H       -1.27711771     -1.10224497     -1.80752135
  C        9.11250074      1.06623082     -5.66962965
  H        8.75350602      2.10251239     -5.65279357
  C        0.41988695     -2.07614780     -0.09037860
  H        0.71083789     -2.85718185     -0.79907287
  H       -0.61683279     -2.27698046      0.20299683
  H        1.03813625     -2.18956014      0.80483970
  C       -0.56357537      0.73038498     -2.67515744
  H        0.38520531      1.19746130     -2.96245304
  H       -1.10231571      0.54676354     -3.61345668
  C       -1.37937136      1.69762487     -1.80110412
  H       -0.80763196      1.94044315     -0.89557422
  H       -2.28619375      1.17884770     -1.45650624
  C       -1.80521367      3.02869064     -2.46552612
  H       -2.35357913      3.58811200     -1.69318023
  C       -2.77239418      2.82455150     -3.64357957
  H       -2.28359644      2.32742768     -4.48934269
  H       -3.15132087      3.78679338     -4.00656527
  H       -3.63538038      2.21523866     -3.35027191
  C       -0.60360690      3.89353201     -2.88131100
  H       -0.03655593      3.43113590     -3.69753189
  H       -0.93422573      4.87837565     -3.23056085
  H        0.08454635      4.05095657     -2.04239937



