%Mem=256MB 
%NProc=12 

#P HF/6-31G* SCF(Conver=6) NoSymm Test 
   Pop=chelpg IOp(6/33=2) GFInput GFPrint 

MEP - Input generated by R.E.D.-III.x MOLECULE 

0 1 
  O        0.00000000      0.00000000      0.00000000
  H        0.96762568     -0.00000000      0.00000000
  O        1.64227832     -2.74284704      6.41142411
  H        2.58065831     -2.51483256      6.47148952
  C       -1.19291414      4.10614977      1.59755618
  C       -1.28632197      2.61170502      1.17182396
  H       -2.25850444      2.26505748      1.56378867
  C       -0.23758057      1.67953070      1.80487602
  H        0.76840072      1.97878106      1.47557602
  C       -0.32327576      1.77489270      3.35373058
  H       -1.30511375      1.35197749      3.62334464
  C       -2.37907361      4.70507581      0.76310338
  H       -3.30080358      4.38601161      1.27554667
  C       -1.35654255      4.14007207      3.13026291
  H       -2.37106478      3.79920975      3.38289895
  H       -1.26272894      5.15547633      3.52753340
  C        0.73519139      0.88118434      4.08961945
  C       -1.43067942      2.66497680     -0.35684420
  H       -1.88638796      1.76012995     -0.76537009
  H       -0.44905877      2.75222349     -0.83455683
  C       -0.32382987      3.24265365      3.83827992
  H        0.67165152      3.67843943      3.70041598
  H       -0.51967756      3.27360377      4.91586489
  C       -2.29104881      3.93399225     -0.59795748
  H       -1.84029317      4.57049636     -1.36908230
  H       -3.28886979      3.67083256     -0.96194015
  C       -0.44283482      0.22006486      1.35414746
  H       -1.52102600      0.01154786      1.30413941
  C       -2.48596694      6.24095724      0.57239860
  H       -1.60487533      6.56943966      0.00000000
  C        0.14472783      4.75514504      1.17331614
  H        1.01129268      4.22257537      1.57391688
  H        0.25809380      4.78269114      0.08558257
  H        0.20610506      5.78736282      1.53334551
  C        0.77069241     -0.51335278      3.45498100
  C        0.30554979      0.72602598      5.58217437
  H       -0.76405561      0.47577854      5.60726135
  H        0.41112896      1.68843889      6.09386953
  C        0.21223460     -0.78001633      2.26522181
  H        0.23781913     -1.79764373      1.87552325
  C        2.15763765      1.49884356      4.02085052
  H        2.22376847      2.41509885      4.61558012
  H        2.91424795      0.81006714      4.40563401
  H        2.43576015      1.73973736      2.99023465
  C        1.46391944     -1.61323863      4.23688856
  H        1.33281385     -2.57626138      3.73378168
  H        2.54827980     -1.41905291      4.27024282
  C        1.07045679     -0.34905336      6.36952864
  H        2.13199802     -0.07554586      6.46284901
  H        0.67428726     -0.41903661      7.38893652
  C       -3.73559011      6.58801029     -0.27516501
  H       -3.77682489      5.92694534     -1.14810995
  H       -4.63635371      6.36445330      0.31724135
  C        0.96589583     -1.71231012      5.68642030
  H       -0.08313763     -2.03250980      5.68119631
  C       -2.50896792      7.02090526      1.89905521
  H       -3.31979301      6.66610777      2.54783748
  H       -2.66690911      8.08977983      1.72734328
  H       -1.57252507      6.92382642      2.45280146
  C       -3.80862074      8.03746506     -0.78377835
  H       -3.84994654      8.73353806      0.06160073
  H       -2.88300903      8.26646042     -1.32936606
  C       -5.02379364      8.27032117     -1.69660098
  H       -5.93492877      8.00100072     -1.14279592
  H       -4.96702503      7.57059446     -2.54294442
  C       -5.20399817      9.69934335     -2.25998380
  H       -6.10835971      9.66422715     -2.88544506
  C       -4.04186438     10.12795436     -3.17116876
  H       -3.10953391     10.24893679     -2.60760155
  H       -4.25837504     11.08787792     -3.65382403
  H       -3.86144508      9.38993024     -3.96166298
  C       -5.45772035     10.74369380     -1.16008913
  H       -4.57503519     10.88664048     -0.52611310
  H       -5.70614175     11.71756274     -1.59727889
  H       -6.29063864     10.44648155     -0.51200013



