%Mem=256MB 
%NProc=12 

#P HF/6-31G* SCF(Conver=6) NoSymm Test 
   Pop=chelpg IOp(6/33=2) GFInput GFPrint 

MEP - Input generated by R.E.D.-III.x MOLECULE 

0 1 
  O        0.00000000      0.00000000      0.00000000
  H        0.96763231      0.00000000     -0.00000000
  O        1.64342535     -2.74315478      6.41150769
  H        2.58214216     -2.51612221      6.47007333
  C       -1.19473538      4.10536489      1.59797128
  C       -1.28797394      2.61055137      1.17331867
  H       -2.25918382      2.26371761      1.56749979
  C       -0.23780093      1.67915347      1.80499880
  H        0.76760951      1.97909708      1.47459668
  C       -0.32185321      1.77481395      3.35393696
  H       -1.30373486      1.35263776      3.62450507
  C       -2.38328440      4.70255604      0.76554460
  H       -3.30349957      4.38281146      1.28032538
  C       -1.35534626      4.13998656      3.13097111
  H       -2.36941594      3.79940209      3.38575466
  H       -1.26068913      5.15554951      3.52769961
  C        0.73657526      0.88075306      4.08924538
  C       -1.43566787      2.66256210     -0.35504949
  H       -1.89146690      1.75704590     -0.76200084
  H       -0.45519140      2.75049372     -0.83498031
  C       -0.32133605      3.24285776      3.83764893
  H        0.67397919      3.67848229      3.69788866
  H       -0.51529045      3.27437582      4.91553676
  C       -2.29766330      3.93062399     -0.59513985
  H       -1.84895990      4.56681391     -1.36770139
  H       -3.29617924      3.66683065     -0.95687689
  C       -0.44273160      0.21964551      1.35426260
  H       -1.52086288      0.01081478      1.30437882
  C       -2.49294946      6.23787092      0.57314657
  H       -1.61290038      6.56810719      0.00000000
  C        0.14114782      4.75568806      1.17060273
  H        1.00916319      4.22612706      1.57199595
  H        0.25326659      4.78018316      0.08267581
  H        0.20082829      5.78911641      1.52758982
  C        0.77085257     -0.51396867      3.45496424
  C        0.30829983      0.72633792      5.58230246
  H       -0.76138522      0.47665879      5.60848235
  H        0.41488115      1.68887557      6.09362563
  C        0.21245779     -0.78049930      2.26514477
  H        0.23775670     -1.79813739      1.87546819
  C        2.15941691      1.49723185      4.01926090
  H        2.22625707      2.41429936      4.61262835
  H        2.91525461      0.80821911      4.40506172
  H        2.43775498      1.73618548      2.98826532
  C        1.46404996     -1.61395452      4.23688530
  H        1.33220712     -2.57708117      3.73416446
  H        2.54849811     -1.42011569      4.26949036
  C        1.07325431     -0.34896796      6.36940698
  H        2.13504144     -0.07612576      6.46183519
  H        0.67785310     -0.41829881      7.38915550
  C       -3.74318861      6.58071833     -0.27545980
  H       -3.76142954      5.94216966     -1.16633615
  H       -4.63891872      6.31732522      0.30567363
  C        0.96710395     -1.71236665      5.68683159
  H       -0.08217858     -2.03182359      5.68273284
  C       -2.51696370      7.02050512      1.89799793
  H       -3.33439733      6.67424049      2.54322074
  H       -2.66372530      8.09038413      1.72276995
  H       -1.58459529      6.91577869      2.45701948
  C       -3.83263001      8.04210494     -0.74739527
  H       -3.97089889      8.71580090      0.10603253
  H       -2.87039599      8.32353564     -1.19849577
  C       -4.93769842      8.30043182     -1.78841322
  H       -4.74032116      7.67392768     -2.67031402
  H       -4.85923753      9.34230499     -2.13309112
  C       -6.39145140      8.05308538     -1.33195330
  H       -6.47597898      7.00681353     -1.00488771
  C       -7.35755169      8.24570460     -2.51189754
  H       -7.32186772      9.27851795     -2.88196906
  H       -8.39210056      8.03391020     -2.21845209
  H       -7.10389823      7.58406807     -3.34813892
  C       -6.79682483      8.95029167     -0.15171893
  H       -6.70566350     10.01106623     -0.41968572
  H       -7.83852862      8.76971598      0.13709776
  H       -6.17557994      8.77569365      0.73273539



