%Mem=256MB 
%NProc=12 

#P HF/6-31G* SCF(Conver=6) NoSymm Test 
   Pop=chelpg IOp(6/33=2) GFInput GFPrint 

MEP - Input generated by R.E.D.-III.x MOLECULE 

0 1 
  O        5.53872377      4.54801692      0.00000000
  H        5.20194166      4.61802149     -0.90443171
  O        0.00000000      0.00000000      0.00000000
  H       -0.16115354     -0.09564980     -0.94923431
  C        8.72122546      1.29515683     -0.18276843
  C        7.69552720      2.31195916      0.38539101
  H        7.58605773      2.04350887      1.45004502
  C        6.27982569      2.19500462     -0.20448944
  H        6.30455005      2.42972707     -1.27872486
  C        5.75242847      0.74398756     -0.00119715
  H        5.62806821      0.62708480      1.08803683
  C        9.98260446      1.71524086      0.63497420
  H        9.73344487      1.42321813      1.66542348
  C        8.19472085     -0.11580676      0.12598895
  H        8.17351949     -0.25486462      1.21665005
  H        8.86392417     -0.88862731     -0.27533787
  C        4.32520201      0.51724359     -0.61304346
  C        8.44639221      3.65885547      0.35255975
  H        8.06171631      4.36244481      1.09464072
  H        8.32354515      4.14778923     -0.61942610
  C        6.77914798     -0.32822539     -0.44468100
  H        6.84101444     -0.35382130     -1.53752994
  H        6.42477560     -1.31899694     -0.13988126
  C        9.93777771      3.27380114      0.60089603
  H       10.56791450      3.67499123     -0.19760116
  H       10.31783733      3.69864029      1.53600032
  C        5.31381428      3.19865492      0.45353832
  H        5.53662058      3.25332688      1.52869592
  C       11.34738554      1.01751677      0.34138767
  H       11.10788137     -0.00000000      0.00000000
  C        8.93688553      1.46424124     -1.70271977
  H        8.00967477      1.34038453     -2.26831901
  H        9.33837987      2.44923264     -1.95597429
  H        9.64048186      0.71215344     -2.07396292
  C        3.40389024      1.68200245     -0.23306375
  C        3.72572243     -0.79273971     -0.01210368
  H        3.87943230     -0.77316196      1.07569157
  H        4.28444735     -1.65574392     -0.38915751
  C        3.86703314      2.83745278      0.26588942
  H        3.16403560      3.62001284      0.55129062
  C        4.37422757      0.40254093     -2.16039027
  H        4.87263955     -0.51897039     -2.47652896
  H        3.37111551      0.39086882     -2.59455063
  H        4.90734957      1.24898047     -2.60402483
  C        1.91349939      1.47947670     -0.43165470
  H        1.35853432      2.33363951     -0.03150234
  H        1.68469298      1.43026945     -1.50858195
  C        2.22843918     -1.00616748     -0.28362459
  H        2.04848606     -1.14437100     -1.36016758
  H        1.88555023     -1.92191892      0.21121136
  C       12.21329208      1.69246288     -0.74948924
  H       11.60961315      1.86654709     -1.64597887
  H       12.51141617      2.68713500     -0.39320067
  C        1.40279503      0.18123482      0.21066900
  H        1.50229637      0.25995441      1.30014191
  C       12.14351428      0.87291257      1.65507750
  H       12.41185946      1.85648002      2.06121641
  H       13.07060763      0.30858330      1.51670789
  H       11.55331026      0.34950452      2.41522818
  C       13.50564209      0.94851054     -1.15207063
  H       14.03671241      1.57333952     -1.88148551
  H       14.17578593      0.88860800     -0.28594366
  C       13.34125797     -0.47157610     -1.72521823
  H       12.86426984     -1.11456472     -0.97315823
  H       14.34443850     -0.89490454     -1.88310980
  C       12.55591207     -0.60080903     -3.04752497
  H       11.55358507     -0.17575508     -2.89668850
  C       12.37703329     -2.08241059     -3.41627157
  H       13.34943503     -2.56319994     -3.58364094
  H       11.78817046     -2.19698961     -4.33357513
  H       11.86695185     -2.63462782     -2.61850130
  C       13.21959983      0.16466892     -4.20350195
  H       14.23734361     -0.20633813     -4.38186244
  H       12.65284914      0.03774736     -5.13292793
  H       13.28693619      1.23886909     -4.00383310



