%Mem=256MB 
%NProc=12 

#P HF/6-31G* SCF(Conver=6) NoSymm Test 
   Pop=chelpg IOp(6/33=2) GFInput GFPrint 

MEP - Input generated by R.E.D.-III.x MOLECULE 

0 1 
  O        0.00000000      0.00000000      0.00000000
  H        0.96763058     -0.00000000     -0.00000000
  O        1.64005025     -2.66500909      6.44535742
  H        2.57816609     -2.43541964      6.50356482
  C       -1.19546508      4.12294659      1.55005309
  C       -1.28803898      2.62448632      1.13984364
  H       -2.25953492      2.28176692      1.53652578
  C       -0.23913301      1.70095608      1.78453175
  H        0.76692896      1.99714754      1.45276946
  C       -0.32698937      1.81432785      3.33237312
  H       -1.30859218      1.39291288      3.60515196
  C       -2.38145255      4.70668738      0.70614474
  H       -3.29767767      4.36312807      1.20967459
  C       -1.36169636      4.17669261      3.08118558
  H       -2.37669058      3.83974847      3.33726844
  H       -1.26711775      5.19794947      3.46358853
  C        0.73159054      0.93046296      4.07999521
  C       -1.43309951      2.65904177     -0.39073873
  H       -1.91049424      1.75816355     -0.78325120
  H       -0.45071802      2.71462214     -0.87133039
  C       -0.33047194      3.28736790      3.80176088
  H        0.66509285      3.72254632      3.66287897
  H       -0.52976940      3.32890602      4.87833347
  C       -2.26268100      3.94541878     -0.65433181
  H       -1.76762969      4.57751721     -1.40115903
  H       -3.25203644      3.71167195     -1.06019887
  C       -0.44281286      0.23586351      1.35140609
  H       -1.52083996      0.02578871      1.30416080
  C       -2.50666367      6.23937957      0.52239369
  H       -1.59902881      6.57693254      0.00000000
  C        0.14166389      4.76986977      1.12233830
  H        1.00800770      4.24653939      1.53526553
  H        0.26106536      4.78154512      0.03500931
  H        0.19714360      5.80740504      1.46844403
  C        0.76944964     -0.47135616      3.46183210
  C        0.30044976      0.79232433      5.57382187
  H       -0.76884777      0.54093813      5.60056925
  H        0.40417410      1.76081171      6.07426100
  C        0.21296702     -0.75260479      2.27452276
  H        0.24025091     -1.77468943      1.89679688
  C        2.15336853      1.54899882      4.00556297
  H        2.21793014      2.47177274      4.59030592
  H        2.91046228      0.86533513      4.39835085
  H        2.43208079      1.77891471      2.97259148
  C        1.46293369     -1.56118927      4.25753980
  H        1.33347624     -2.53022660      3.76567552
  H        2.54703984     -1.36543707      4.28996319
  C        1.06579125     -0.27245203      6.37468747
  H        2.12691005      0.00342467      6.46587425
  H        0.66858768     -0.33079578      7.39442522
  C       -3.66984781      6.61880972     -0.43940648
  H       -3.68724990      7.71474960     -0.52614365
  H       -3.40598370      6.25079992     -1.43798660
  C        0.96337805     -1.64377882      5.70757008
  H       -0.08533676     -1.96507637      5.70506456
  C       -2.56641769      7.02382697      1.84784341
  H       -3.29844131      6.60593928      2.54582719
  H       -2.84200258      8.06857900      1.66504795
  H       -1.59788020      7.02944990      2.35567052
  C       -5.10390340      6.12870264     -0.13775682
  H       -5.68050841      6.26435633     -1.06174588
  H       -5.09507476      5.04777191      0.04700636
  C       -5.84023459      6.84816472      1.00629155
  H       -5.71941214      7.93345066      0.87626694
  H       -5.36629265      6.60373161      1.96392999
  C       -7.35245690      6.54267818      1.13569952
  H       -7.69759428      7.10664940      2.01497782
  C       -7.63366421      5.05649820      1.41355191
  H       -7.37247184      4.42882356      0.55373377
  H       -8.69636790      4.89329392      1.62634287
  H       -7.06140068      4.69641506      2.27677360
  C       -8.17088910      7.04420589     -0.06593092
  H       -7.93556609      6.48836613     -0.98076069
  H       -9.24462999      6.92505897      0.11896954
  H       -7.98176702      8.10628354     -0.26154034



