%Mem=256MB 
%NProc=12 

#P HF/6-31G* SCF(Conver=6) NoSymm Test 
   Pop=chelpg IOp(6/33=2) GFInput GFPrint 

MEP - Input generated by R.E.D.-III.x MOLECULE 

0 1 
  O        0.00000000      0.00000000      0.00000000
  H        0.96762212     -0.00000000     -0.00000000
  O        1.64943894     -2.65520249      6.44665728
  H        2.58656670     -2.42186914      6.50588984
  C       -1.20542698      4.12161605      1.54664525
  C       -1.29306003      2.62253914      1.13699265
  H       -2.26425574      2.27744651      1.53236632
  C       -0.24259493      1.70178904      1.78331368
  H        0.76310775      1.99975174      1.45203138
  C       -0.33158428      1.81608252      3.33100187
  H       -1.31206812      1.39192891      3.60362681
  C       -2.39169496      4.70159777      0.70026794
  H       -3.30758551      4.35577645      1.20272728
  C       -1.37379682      4.17490786      3.07769567
  H       -2.38783901      3.83432894      3.33273361
  H       -1.28324385      5.19641858      3.46046097
  C        0.72942392      0.93601646      4.07952731
  C       -1.43569773      2.65593736     -0.39374322
  H       -1.90954301      1.75343792     -0.78676810
  H       -0.45256485      2.71446370     -0.87247500
  C       -0.33982756      3.28944239      3.79898076
  H        0.65413187      3.72794756      3.65948847
  H       -0.53915012      3.33141489      4.87554322
  C       -2.26869601      3.93957993     -0.65934439
  H       -1.77436706      4.57247435     -1.40596665
  H       -3.25689224      3.70280449     -1.06636619
  C       -0.44289092      0.23594343      1.35136813
  H       -1.52041438      0.02319100      1.30472550
  C       -2.51983671      6.23398816      0.51463208
  H       -1.60852816      6.57348697      0.00000000
  C        0.13066229      4.77244098      1.12098225
  H        0.99815031      4.25187808      1.53516548
  H        0.25179070      4.78462262      0.03382014
  H        0.18278261      5.81020815      1.46716883
  C        0.77186704     -0.46607698      3.46206670
  C        0.29816868      0.79720765      5.57326925
  H       -0.77036794      0.54262527      5.59991400
  H        0.39878944      1.76619313      6.07341717
  C        0.21592607     -0.74991096      2.27510737
  H        0.24632256     -1.77218692      1.89813322
  C        2.14934429      1.55885795      4.00565909
  H        2.21044841      2.48268103      4.58909143
  H        2.90798493      0.87809736      4.40057143
  H        2.42878865      1.78807106      2.97271288
  C        1.46911886     -1.55307234      4.25821910
  H        1.34317375     -2.52278222      3.76677451
  H        2.55250656     -1.35342565      4.29068380
  C        1.06680640     -0.26474679      6.37472222
  H        2.12697066      0.01480675      6.46601782
  H        0.66957087     -0.32406051      7.39438778
  C       -3.67670878      6.61239118     -0.45602237
  H       -3.68121730      7.70572952     -0.55801606
  H       -3.41116836      6.23298005     -1.44982079
  C        0.96942955     -1.63670878      5.70817416
  H       -0.07813317     -1.96173631      5.70540113
  C       -2.59302108      7.01721764      1.83985891
  H       -3.33831193      6.60283926      2.52604556
  H       -2.85678371      8.06455146      1.65493365
  H       -1.63241790      7.01509977      2.36220806
  C       -5.11069172      6.11912465     -0.15683601
  H       -5.68667057      6.21544683     -1.08624635
  H       -5.08925657      5.04227149      0.05246495
  C       -5.90095057      6.80855979      0.97413837
  H       -5.41074146      6.62426342      1.93711961
  H       -6.88328549      6.31693201      1.04236112
  C       -6.14128366      8.32662752      0.83146979
  H       -5.16480196      8.82832253      0.77635912
  C       -6.86459069      8.86664473      2.07586769
  H       -7.85495524      8.40565333      2.18331289
  H       -7.00858856      9.95139767      2.01363903
  H       -6.29869343      8.65513806      2.99044063
  C       -6.92397619      8.68223857     -0.44273910
  H       -7.90091845      8.18132796     -0.45213250
  H       -7.10450626      9.76162400     -0.50201221
  H       -6.39004415      8.38793495     -1.35195531



