%Mem=256MB 
%NProc=12 

#P HF/6-31G* SCF(Conver=6) NoSymm Test 
   Pop=chelpg IOp(6/33=2) GFInput GFPrint 

MEP - Input generated by R.E.D.-III.x MOLECULE 

0 1 
  O        7.13055467      0.87672111      0.00000000
  H        7.54003814     -0.00000000     -0.00000000
  O        8.68881471     -0.14806073     -6.92025731
  H        8.87064240     -1.09833445     -6.92935316
  C        2.67308202      0.07646418     -0.47588528
  C        4.02940076      0.82908411     -0.43759678
  H        3.82530293      1.81054806     -0.89898952
  C        5.13652496      0.20282445     -1.30225577
  H        5.38427008     -0.79833988     -0.92019268
  C        4.64008739      0.08913779     -2.77396277
  H        4.53641493      1.12758031     -3.12948989
  C        1.84269141      0.98772096      0.48132319
  H        1.72222816      1.92304197     -0.08462798
  C        2.18714999      0.06888511     -1.93445915
  H        1.98661339      1.10428403     -2.24590201
  H        1.24032943     -0.47810877     -2.03702009
  C        5.69198046     -0.57768864     -3.72866049
  C        4.26580605      1.09716293      1.06260471
  H        4.91801554      1.95757685      1.22994750
  H        4.76370415      0.24399167      1.53508423
  C        3.23466800     -0.55470733     -2.87730052
  H        3.30171809     -1.62749436     -2.66874072
  H        2.87102936     -0.47061381     -3.90726341
  C        2.83301405      1.30276016      1.64489792
  H        2.67174374      0.63881407      2.49879252
  H        2.68935131      2.32281221      2.01657279
  C        6.42962631      1.03856480     -1.24886016
  H        6.16354713      2.10521485     -1.25233573
  C        0.39509420      0.55601281      0.86204862
  H        0.00000000      0.00000000      0.00000000
  C        2.78398786     -1.36936230      0.05657598
  H        3.48519653     -1.97131609     -0.52728724
  H        3.12300092     -1.40146158      1.09562468
  H        1.81168654     -1.87043114      0.00816423
  C        7.07947158      0.02384863     -3.47776444
  C        5.28964824     -0.27355685     -5.20594011
  H        5.05129768      0.79626195     -5.28360281
  H        4.37033677     -0.81509611     -5.45231428
  C        7.36374742      0.75860204     -2.39246284
  H        8.35845015      1.19007655     -2.28082570
  C        5.76829600     -2.11378220     -3.51776688
  H        4.85464853     -2.60979720     -3.85951885
  H        6.60042370     -2.55482312     -4.07265524
  H        5.91766650     -2.36209464     -2.46255749
  C        8.14607691     -0.23376178     -4.52554209
  H        9.05441883      0.32832105     -4.28751078
  H        8.42357769     -1.30035710     -4.51991495
  C        6.36395712     -0.60511707     -6.25329598
  H        6.54923341     -1.68914037     -6.28470938
  H        6.01414972     -0.31819886     -7.25147083
  C        0.27838194     -0.35251296      2.11075172
  H        1.08218245     -1.09621518      2.11696909
  H        0.43541032      0.26722318      3.00382446
  C        7.67617106      0.11536183     -5.94543441
  H        7.51602463      1.19845116     -6.01116818
  C       -0.48916317      1.80867493      1.03274980
  H       -0.10609981      2.44867476      1.83749393
  H       -1.52388811      1.55145379      1.28054290
  H       -0.51026792      2.40556680      0.11418433
  C       -1.06277098     -1.09967166      2.27128330
  H       -1.08767299     -1.52330011      3.28309440
  H       -1.89442029     -0.38646257      2.22490955
  C       -1.28186820     -2.22822999      1.24922415
  H       -0.43012814     -2.92163982      1.30763234
  H       -1.26487833     -1.81135124      0.23339198
  C       -2.58461409     -3.04936579      1.40247672
  H       -2.56298930     -3.79975967      0.59819439
  C       -3.84898320     -2.19980247      1.19154980
  H       -3.97967678     -1.46313216      1.99250651
  H       -4.74489132     -2.83100537      1.17961367
  H       -3.81075753     -1.65651526      0.23997170
  C       -2.65137423     -3.81819435      2.73261462
  H       -2.74540659     -3.14043604      3.58878536
  H       -3.51826606     -4.48855945      2.75102104
  H       -1.75377776     -4.42885744      2.88605399



