%Mem=256MB 
%NProc=12 

#P HF/6-31G* SCF(Conver=6) NoSymm Test 
   Pop=chelpg IOp(6/33=2) GFInput GFPrint 

MEP - Input generated by R.E.D.-III.x MOLECULE 

0 1 
  O        6.70078513      0.90083481      0.00000000
  H        7.05405232     -0.00000000     -0.00000000
  O        9.84476041      0.36367940     -6.41495210
  H        9.97435274     -0.59336158     -6.47359175
  C        2.43967963      0.51382087     -1.59154131
  C        3.79800532      1.14563684     -1.16770328
  H        3.76577855      2.17708220     -1.56006160
  C        5.04746748      0.50857435     -1.80225814
  H        5.13582184     -0.53705360     -1.47241420
  C        4.92556436      0.55263058     -3.35095379
  H        4.96189796      1.62085994     -3.62129774
  C        1.45138430      1.40021367     -0.75529801
  H        1.41446206      2.37589425     -1.26602069
  C        2.34679462      0.65399549     -3.12420565
  H        2.29429488      1.72296519     -3.37679746
  H        1.43495926      0.19680919     -3.52073573
  C        6.14213466     -0.10857939     -4.08777812
  C        3.69822348      1.26109230      0.36113789
  H        4.37336963      2.01745414      0.76785682
  H        3.97854566      0.31623768      0.83877236
  C        3.55770504      0.01880318     -3.83354526
  H        3.51437001     -1.06699175     -3.69542411
  H        3.45625223      0.18970940     -4.91104712
  C        2.20239330      1.59515513      0.60550474
  H        1.77689081      0.93789387      1.37343852
  H        2.08002333      2.61782382      0.97510094
  C        6.33246214      1.23191634     -1.35386863
  H        6.13378127      2.31198531     -1.30452554
  C       -0.01912454      0.94349941     -0.56353143
  H        0.00000000      0.00000000      0.00000000
  C        2.32284579     -0.96843973     -1.16768282
  H        3.13425009     -1.58161323     -1.56866727
  H        2.33874082     -1.08424700     -0.07996987
  H        1.38371897     -1.40139556     -1.52780040
  C        7.45469455      0.36713284     -3.45547673
  C        6.12827138      0.34596853     -5.58100179
  H        5.97151872      1.43317055     -5.60741695
  H        5.26992868     -0.10375357     -6.09111416
  C        7.50122219      0.98551277     -2.26637916
  H        8.45877615      1.33273763     -1.87829689
  C        6.08529053     -1.65819129     -4.01706701
  H        5.25528776     -2.05433917     -4.61014155
  H        7.00187198     -2.11201958     -4.40283691
  H        5.96400504     -2.00404019     -2.98593767
  C        8.73051243      0.12111130     -4.23872887
  H        9.58031329      0.59451950     -3.73729415
  H        8.94441422     -0.95959598     -4.27105080
  C        7.40722086      0.02423966     -6.36950049
  H        7.53907676     -1.06412274     -6.46153870
  H        7.32677400      0.41729142     -7.38934575
  C       -0.78203825      1.99044326      0.28868373
  H       -0.21940930      2.18202800      1.20969026
  H       -0.78901331      2.94078973     -0.26599627
  C        8.63954849      0.61916962     -5.68876293
  H        8.55561930      1.71277957     -5.68498679
  C       -0.75941091      0.69037465     -1.88791884
  H       -0.74420405      1.58417705     -2.52457000
  H       -1.80728719      0.42855510     -1.71270486
  H       -0.31860063     -0.13143766     -2.45623398
  C       -2.23137384      1.64922550      0.68950312
  H       -2.62909852      2.51437592      1.23495283
  H       -2.85745747      1.54882804     -0.20474003
  C       -2.36068674      0.39205775      1.56528818
  H       -1.66641727      0.48288600      2.41371821
  H       -2.02682762     -0.48480297      0.99449142
  C       -3.77141561      0.08728172      2.12352216
  H       -3.67181331     -0.84406960      2.70057082
  C       -4.80223616     -0.17772023      1.01354370
  H       -5.00537635      0.72569045      0.42699767
  H       -5.75548653     -0.51242351      1.43842323
  H       -4.45408294     -0.95449237      0.32243777
  C       -4.27343543      1.16677330      3.09692298
  H       -4.46295793      2.11796056      2.58641926
  H       -5.21319719      0.85791205      3.56887909
  H       -3.54514354      1.35431566      3.89470175



