%Mem=256MB 
%NProc=12 

#P HF/6-31G* SCF(Conver=6) NoSymm Test 
   Pop=chelpg IOp(6/33=2) GFInput GFPrint 

MEP - Input generated by R.E.D.-III.x MOLECULE 

0 1 
  O       -3.71275715     -3.59851467     -4.15419132
  H       -3.86602669     -4.44072750     -3.70571599
  C        1.58557199      2.05803509      0.00000000
  C        1.32523186      0.60649599      0.47701433
  H        2.11405315      0.00000000     -0.00000000
  C        0.00000000      0.00000000      0.00000000
  H       -0.83632608      0.57708488      0.41919845
  C       -0.06791989      0.05325380     -1.55173353
  H        0.71023987     -0.64568565     -1.90075731
  C        2.96879516      2.31009502      0.67747671
  H        3.65802451      1.65100287      0.12970686
  C        1.60815424      2.03483596     -1.53846665
  H        2.46136695      1.42514104     -1.86962465
  H        1.76350510      3.04109782     -1.95046381
  C       -1.42229135     -0.50535127     -2.11537077
  C        1.65613678      0.63689616      1.98181191
  H        1.95593161     -0.34570585      2.35954443
  H        0.78080143      0.94506079      2.56701233
  C        0.30330390      1.44781349     -2.11668678
  H       -0.51169038      2.15426515     -1.92934023
  H        0.40172309      1.38625951     -3.20623364
  C        2.80246594      1.68992391      2.10057617
  H        2.54313579      2.45192727      2.84073718
  H        3.73726019      1.23333360      2.44221753
  C       -0.14528537     -1.45374284      0.47710404
  H       -0.36344695     -1.47650762      1.55321061
  H        0.82002971     -1.97511944      0.36513276
  C        3.59861455      3.73076197      0.58375174
  H        3.25292869      4.16556451     -0.36672964
  C        0.51298462      3.05053934      0.50097586
  H        0.73342731      4.06306304      0.14567011
  H       -0.48579637      2.79401968      0.13971898
  H        0.45880369      3.08643666      1.59271557
  C       -1.79599135     -1.81130600     -1.39932423
  C       -1.23843073     -0.81962492     -3.63301457
  H       -0.30333547     -1.38393023     -3.75507814
  H       -1.11052457      0.11696019     -4.18645718
  C       -1.20604998     -2.21608632     -0.26489182
  H       -1.50998730     -3.16954881      0.16863819
  C       -2.58144265      0.51108707     -1.93388681
  H       -2.44823427      1.38893883     -2.57390245
  H       -3.54657811      0.06893115     -2.19313029
  H       -2.65072522      0.85016939     -0.89569489
  C       -2.88634785     -2.64952418     -2.04073456
  H       -2.99519325     -3.59216903     -1.48899656
  H       -3.85696122     -2.13660478     -1.98471319
  C       -2.38054499     -1.62356746     -4.27126248
  H       -3.31727973     -1.05233995     -4.26911696
  H       -2.14655369     -1.83810847     -5.32021218
  C        3.19938145      4.71594001      1.70863798
  H        2.14113730      4.59415839      1.96311387
  H        3.76023302      4.46052646      2.61735948
  C       -2.61190082     -2.93092888     -3.52505442
  H       -1.70734257     -3.55578116     -3.60941338
  C        5.13428836      3.61561797      0.49296167
  H        5.54219332      3.13058856      1.38875047
  H        5.61382259      4.59520657      0.39969571
  H        5.43531601      3.01833063     -0.37482877
  C        3.43165631      6.19473770      1.35360286
  H        4.49377643      6.37520918      1.14899520
  H        2.90663542      6.41330404      0.41293715
  C        2.93253613      7.19005339      2.41721692
  H        1.85354423      7.03444539      2.56190798
  H        3.04040180      8.21062319      2.02070225
  C        3.62095028      7.13703708      3.79800306
  H        3.50052489      6.12275060      4.20478512
  C        2.93192614      8.10718755      4.77115296
  H        1.86372990      7.88232179      4.87041673
  H        3.38005379      8.05470513      5.76998298
  H        3.02270655      9.14330038      4.42026639
  C        5.12626008      7.43600503      3.71515532
  H        5.65845684      6.70965698      3.09249635
  H        5.58464024      7.41438719      4.71041463
  H        5.30220849      8.43280863      3.28999833



