%Mem=256MB 
%NProc=12 

#P HF/6-31G* SCF(Conver=6) NoSymm Test 
   Pop=chelpg IOp(6/33=2) GFInput GFPrint 

MEP - Input generated by R.E.D.-III.x MOLECULE 

0 1 
  O        5.00614389     -0.23933085     -7.25056828
  H        5.95721363     -0.32695830     -7.10315414
  C        0.00000000      0.00000000      0.00000000
  C        1.55489721     -0.00000000      0.00000000
  H        1.84148952      1.06601782      0.00000000
  C        2.21461453     -0.60560504     -1.24599457
  H        1.94737871     -1.66963265     -1.31563679
  C        1.71379378      0.12860506     -2.51697333
  H        2.11912750      1.15155204     -2.44484443
  C       -0.27273719      0.64830816      1.40252876
  H       -0.03973530      1.71957539      1.29248984
  C       -0.43275293      0.81868030     -1.23441702
  H       -0.10744668      1.86002755     -1.09603668
  H       -1.52150916      0.84612687     -1.34353560
  C        2.30989986     -0.47217108     -3.83840241
  C        1.93594961     -0.54946946      1.38231517
  H        2.93705107     -0.23695460      1.69574538
  H        1.93508179     -1.64658206      1.37694351
  C        0.17331880      0.25944046     -2.53837044
  H       -0.27986003     -0.71662453     -2.74196808
  H       -0.13013749      0.90956262     -3.36679992
  C        0.82714253      0.00690966      2.31697155
  H        0.39455005     -0.79366445      2.92883492
  H        1.23253869      0.74382747      3.01668123
  C        3.74643883     -0.51091259     -1.15777539
  H        4.12824153     -1.23974536     -0.43048290
  H        4.03098127      0.47629197     -0.75692949
  C       -1.68946893      0.56257401      2.02915446
  H       -1.90883180     -0.50031585      2.20286999
  C       -0.59139347     -1.42749388     -0.05453110
  H       -1.68449024     -1.39123849     -0.10876347
  H       -0.24400044     -1.98815035     -0.92579396
  H       -0.32962280     -2.01367724      0.83164556
  C        3.81490317     -0.72608197     -3.67272961
  C        2.11646925      0.56515018     -4.98819756
  H        2.44273076      1.54819936     -4.62094489
  H        1.04978818      0.65843529     -5.21946862
  C        4.42818500     -0.72101401     -2.47996826
  H        5.50609576     -0.88401163     -2.44798330
  C        1.61783769     -1.80727480     -4.22336030
  H        0.57914473     -1.64608055     -4.52864871
  H        2.12531685     -2.29624896     -5.05858675
  H        1.62407807     -2.51140247     -3.38554704
  C        4.60363384     -0.98802506     -4.94236406
  H        5.67189739     -1.06109320     -4.70078925
  H        4.31447796     -1.94929998     -5.39024390
  C        2.88205727      0.24865664     -6.28121384
  H        2.51480663     -0.67607795     -6.74354560
  H        2.72668238      1.04877263     -7.01384218
  C       -1.69723386      1.28041693      3.40350804
  H       -0.87720234      0.89031439      4.01762399
  H       -1.46985178      2.34350642      3.23323681
  C        4.37239335      0.09226031     -6.00884519
  H        4.77064567      1.05144981     -5.63855305
  C       -2.79253314      1.13296446      1.12154330
  H       -2.58206726      2.17645904      0.85472015
  H       -3.76685609      1.11005325      1.61901049
  H       -2.89675215      0.56633420      0.19385451
  C       -2.98996281      1.18522802      4.23860795
  H       -2.84003812      1.79411893      5.13913772
  H       -3.82355795      1.65137968      3.70050722
  C       -3.36598511     -0.24786594      4.65006601
  H       -2.48865330     -0.72036038      5.11617494
  H       -3.58524443     -0.83885582      3.75076201
  C       -4.56488528     -0.39149325      5.61779622
  H       -4.69178912     -1.47202091      5.78106054
  C       -5.87900504      0.13076924      5.01348474
  H       -6.07825345     -0.32529725      4.03651885
  H       -6.72756480     -0.09907960      5.66794967
  H       -5.85697228      1.21812551      4.87717551
  C       -4.29955182      0.24218976      6.99362412
  H       -3.36772017     -0.13329057      7.43271208
  H       -5.11330677      0.01230810      7.69091839
  H       -4.22372316      1.33379665      6.93052547



