%Mem=256MB 
%NProc=12 

#P HF/6-31G* SCF(Conver=6) NoSymm Test 
   Pop=chelpg IOp(6/33=2) GFInput GFPrint 

MEP - Input generated by R.E.D.-III.x MOLECULE 

0 1 
  O       -3.73559331     -3.61268747     -4.12031201
  H       -3.88452200     -4.45436743     -3.66938784
  C        1.60166597      2.06404185      0.00000000
  C        1.32723123      0.60837664      0.47229206
  H        2.11806425      0.00000000      0.00000000
  C        0.00000000      0.00000000      0.00000000
  H       -0.83373474      0.57828067      0.42299317
  C       -0.08093249      0.04895706     -1.54803081
  H        0.69741405     -0.64556943     -1.90548459
  C        2.98696763      2.31910805      0.69135057
  H        3.72661798      1.74441420      0.11122823
  C        1.59652490      2.02712066     -1.54262255
  H        2.44167556      1.41038899     -1.88141344
  H        1.74602520      3.02181278     -1.97411582
  C       -1.43766085     -0.51246917     -2.10189882
  C        1.63950763      0.63093022      1.97555334
  H        1.89206553     -0.35993402      2.36604612
  H        0.77136928      0.98332358      2.54634623
  C        0.28046541      1.44687242     -2.10087090
  H       -0.52942389      2.15228578     -1.88653170
  H        0.35854927      1.40275787     -3.19310186
  C        2.82618695      1.62667619      2.08872567
  H        2.63469592      2.37606550      2.86610695
  H        3.74699378      1.11158912      2.37814064
  C       -0.14199573     -1.45209160      0.48437132
  H       -0.35629512     -1.47138518      1.56123045
  H        0.82321805     -1.97327939      0.37060438
  C        3.53600037      3.76552627      0.80407132
  H        2.84136088      4.33943326      1.43652078
  C        0.54818107      3.06535481      0.52731226
  H        0.73790432      4.06924062      0.13330585
  H       -0.46846577      2.79127035      0.23509567
  H        0.56167029      3.13751247      1.61912663
  C       -1.80420801     -1.81738862     -1.38107312
  C       -1.26221223     -0.82919746     -3.61993689
  H       -0.32723002     -1.39269370     -3.74632532
  H       -1.13828941      0.10667465     -4.17558851
  C       -1.20545307     -2.21836910     -0.24991680
  H       -1.50416276     -3.17165207      0.18770622
  C       -2.59651920      0.50329268     -1.91549007
  H       -2.46571652      1.38116515     -2.55602603
  H       -3.56266727      0.06096099     -2.17069059
  H       -2.66135906      0.84255231     -0.87700615
  C       -2.89696784     -2.65894543     -2.01376742
  H       -3.00025441     -3.60093497     -1.45980738
  H       -3.86816445     -2.14782079     -1.95203852
  C       -2.40709866     -1.63590545     -4.24970112
  H       -3.34466619     -1.06610864     -4.24274629
  H       -2.17941238     -1.85224073     -5.29966766
  C        4.90883589      3.76257444      1.52192104
  H        4.84374146      3.14617806      2.42574856
  H        5.64649810      3.26866151      0.87060861
  C       -2.63172475     -2.94223061     -3.49947628
  H       -1.72678553     -3.56585308     -3.58865194
  C        3.64388537      4.48144049     -0.55388357
  H        4.26104390      3.90349299     -1.25340272
  H        4.10251800      5.46876745     -0.44594173
  H        2.66766052      4.63397985     -1.01911030
  C        5.44249151      5.14379104      1.93724329
  H        5.61051360      5.76615885      1.05114588
  H        4.67415670      5.65419907      2.53394591
  C        6.74728184      5.04140283      2.74419320
  H        7.48792789      4.49210638      2.14489998
  H        6.56214267      4.42402219      3.63513847
  C        7.38591704      6.37364202      3.20159551
  H        8.29033639      6.09647539      3.76330523
  C        6.48257009      7.16433857      4.16246319
  H        6.16266277      6.54602446      5.00952977
  H        7.01080865      8.03571059      4.56608470
  H        5.58166465      7.53318246      3.65868303
  C        7.83949770      7.25066646      2.02264020
  H        8.48993800      6.69376065      1.33790467
  H        8.39910907      8.12313660      2.37886598
  H        6.98675160      7.62450371      1.44425135



