%Mem=256MB 
%NProc=12 

#P HF/6-31G* SCF(Conver=6) NoSymm Test 
   Pop=chelpg IOp(6/33=2) GFInput GFPrint 

MEP - Input generated by R.E.D.-III.x MOLECULE 

0 1 
  O        4.99812425     -0.25117717     -7.25450609
  H        5.94963256     -0.33579805     -7.10815934
  C        0.00000000      0.00000000      0.00000000
  C        1.55462319     -0.00000000      0.00000000
  H        1.84163015      1.06595552      0.00000000
  C        2.21439586     -0.60630161     -1.24571074
  H        1.94919751     -1.67096633     -1.31325235
  C        1.71142286      0.12464685     -2.51786525
  H        2.11625698      1.14800840     -2.44871756
  C       -0.27425540      0.64939180      1.40171057
  H       -0.04557529      1.72144166      1.29071907
  C       -0.43411887      0.81656198     -1.23517154
  H       -0.10829713      1.85807980     -1.09907244
  H       -1.52303082      0.84367122     -1.34266083
  C        2.30657005     -0.47922331     -3.83833534
  C        1.93424900     -0.54988400      1.38254013
  H        2.93681447     -0.24174020      1.69557047
  H        1.92816110     -1.64694003      1.37810381
  C        0.17082438      0.25486183     -2.53842410
  H       -0.28237286     -0.72163148     -2.73976120
  H       -0.13327380      0.90332492     -3.36788296
  C        0.82844925      0.01297395      2.31695678
  H        0.39807441     -0.78235269      2.93726403
  H        1.23890728      0.75483458      3.00845121
  C        3.74617526     -0.50871404     -1.15923119
  H        4.13002812     -1.23544004     -0.43089815
  H        4.02943889      0.47979695     -0.76069600
  C       -1.69155061      0.55790852      2.02472978
  H       -1.90937764     -0.50583176      2.20552423
  C       -0.59020112     -1.42826284     -0.05301789
  H       -1.68317072     -1.39351958     -0.10926498
  H       -0.24062408     -1.98986552     -0.92273027
  H       -0.32945700     -2.01294073      0.83444371
  C        3.81224914     -0.72993321     -3.67382090
  C        2.10951303      0.55410703     -4.99112720
  H        2.43391164      1.53906807     -4.62735112
  H        1.04237764      0.64411505     -5.22149258
  C        4.42688852     -0.72047896     -2.48177526
  H        5.50513988     -0.88135983     -2.45057177
  C        1.61602651     -1.81654749     -4.21819607
  H        0.57660644     -1.65761389     -4.52211278
  H        2.12286788     -2.30711656     -5.05288226
  H        1.62471633     -2.51827202     -3.37841709
  C        4.59983944     -0.99404184     -4.94370700
  H        5.66854810     -1.06447462     -4.70335196
  H        4.31179277     -1.95712296     -5.38838490
  C        2.87423919      0.23537287     -6.28407736
  H        2.50834218     -0.69140894     -6.74336381
  H        2.71643602      1.03306728     -7.01882336
  C       -1.72709311      1.27227813      3.40061582
  H       -0.81630499      1.03153423      3.95717131
  H       -1.70198247      2.36036856      3.23275173
  C        4.36520525      0.08272962     -6.01298927
  H        4.76201951      1.04374490     -5.64594843
  C       -2.79226919      1.12169267      1.10809473
  H       -2.55515320      2.14749912      0.79945302
  H       -3.76002592      1.14610424      1.61815726
  H       -2.92505073      0.52392792      0.20355883
  C       -2.93877143      0.92087892      4.27967368
  H       -3.86766632      1.10350044      3.72611305
  H       -2.92621641     -0.15686736      4.49214845
  C       -3.02190823      1.71564763      5.59643636
  H       -3.96471897      1.45794910      6.10156967
  H       -3.09276641      2.78565689      5.35281079
  C       -1.86983121      1.52203554      6.60552459
  H       -0.92751767      1.79944307      6.11184353
  C       -1.74341600      0.06548947      7.07936748
  H       -1.53152274     -0.62116744      6.25336538
  H       -0.93367658     -0.03934176      7.81045089
  H       -2.67143432     -0.26888244      7.56133140
  C       -2.05382612      2.46482243      7.80562718
  H       -2.10773694      3.51205243      7.48647107
  H       -1.22393364      2.37268941      8.51559268
  H       -2.98079638      2.23352133      8.34611665



