%Mem=256MB 
%NProc=12 

#P HF/6-31G* SCF(Conver=6) NoSymm Test 
   Pop=chelpg IOp(6/33=2) GFInput GFPrint 

MEP - Input generated by R.E.D.-III.x MOLECULE 

0 1 
  O        4.21123045      6.55676070      4.11844931
  H        4.98983776      6.90739243      3.66592757
  C        0.00000000      0.00000000      0.00000000
  C        1.34564127      0.61944900     -0.47231306
  H        2.12778639      0.00000000     -0.00000000
  C        1.61290453      2.05459042      0.00000000
  H        0.84823998      2.72200036     -0.42216737
  C        1.54727857      2.12062931      1.54818244
  H        2.41084466      1.53474404      1.90443662
  C        0.08849116     -1.40523545     -0.69263019
  H        0.82616743     -1.98334947     -0.11335223
  C        0.03577750      0.01238864      1.54262221
  H        0.83924494     -0.65838198      1.88007003
  H       -0.89262712     -0.37413706      1.97466379
  C        1.76202103      3.57286927      2.10266002
  C        1.40009519      0.31153234     -1.97570393
  H        2.42293521      0.30589771     -2.36541214
  H        0.84902522      1.06916198     -2.54662714
  C        0.27995880      1.42948133      2.10201106
  H       -0.60138013      2.04392167      1.88941692
  H        0.34316007      1.36342956      3.19409598
  C        0.72021943     -1.08024843     -2.09007686
  H       -0.05427183     -1.07381436     -2.86643679
  H        1.44159192     -1.84941920     -2.38165007
  C        2.98602740      2.54649196     -0.48561912
  H        2.95159346      2.75890720     -1.56247211
  H        3.72702712      1.73761447     -0.37232555
  C       -1.18052511     -2.28974738     -0.80611116
  H       -1.90682445     -1.75568143     -1.43798541
  C       -1.22693132      0.77990046     -0.52617381
  H       -2.15507296      0.35049314     -0.13482160
  H       -1.20905053      1.83177297     -0.23054632
  H       -1.29218266      0.75280758     -1.61816586
  C        2.93681010      4.24718705      1.38019064
  C        2.11502472      3.47885720      3.61994697
  H        2.88998639      2.70962900      3.74417376
  H        1.23884597      3.12982395      4.17713515
  C        3.47031354      3.76481729      0.24816771
  H        4.32119941      4.28737345     -0.19046664
  C        0.49398601      4.44925980      1.91919279
  H       -0.32413250      4.10888269      2.56176092
  H        0.68793303      5.49420320      2.17359219
  H        0.14664397      4.42926403      0.88155175
  C        3.48742210      5.51185052      2.01263477
  H        4.37470957      5.84215726      1.45721283
  H        2.75477877      6.32911140      1.95282394
  C        2.61913096      4.78557234      4.24969745
  H        1.83770308      5.55569333      4.24486568
  H        2.88651941      4.61677553      5.29902454
  C       -0.84277976     -3.61932815     -1.52636206
  H       -0.28739582     -3.40099330     -2.44611649
  H       -0.15797585     -4.19551533     -0.88723547
  C        3.82963846      5.32291585      3.49759111
  H        4.65564202      4.59774359      3.58485309
  C       -1.84960408     -2.57123339      0.55070448
  H       -1.14229333     -3.03939460      1.24706117
  H       -2.70201066     -3.24780821      0.43891214
  H       -2.22646939     -1.66085670      1.02159504
  C       -2.05699427     -4.48282354     -1.90930430
  H       -2.55694569     -4.86488250     -1.01196364
  H       -2.79537257     -3.84422376     -2.41485378
  C       -1.72284087     -5.65632392     -2.84889831
  H       -1.29416532     -5.25001504     -3.77650700
  H       -2.66097410     -6.15179180     -3.14018266
  C       -0.76138121     -6.73173614     -2.29938003
  H        0.18248426     -6.24024761     -2.02301890
  C       -0.44000755     -7.76397456     -3.39207258
  H       -0.00830352     -7.28586659     -4.27893349
  H        0.27444822     -8.51400174     -3.03391575
  H       -1.34768142     -8.29405593     -3.70837280
  C       -1.31471249     -7.42849049     -1.04615176
  H       -1.47799157     -6.72730302     -0.22132555
  H       -0.62267422     -8.20007324     -0.68992814
  H       -2.27345077     -7.91719157     -1.26367890



