%Mem=256MB 
%NProc=12 

#P HF/6-31G* SCF(Conver=6) NoSymm Test 
   Pop=chelpg IOp(6/33=2) GFInput GFPrint 

MEP - Input generated by R.E.D.-III.x MOLECULE 

0 1 
  O        4.99812573     -0.25117429     -7.25450573
  H        5.94963415     -0.33579552     -7.10815905
  C        0.00000000      0.00000000      0.00000000
  C        1.55462364      0.00000000     -0.00000000
  H        1.84163001      1.06595455      0.00000000
  C        2.21439537     -0.60630231     -1.24571123
  H        1.94919266     -1.67096595     -1.31325438
  C        1.71142356      0.12464888     -2.51786513
  H        2.11625980      1.14800967     -2.44871604
  C       -0.27425510      0.64939104      1.40171201
  H       -0.04557271      1.72144045      1.29071971
  C       -0.43411888      0.81656282     -1.23517130
  H       -0.10829849      1.85808075     -1.09907050
  H       -1.52303078      0.84367144     -1.34266142
  C        2.30657089     -0.47922105     -3.83833525
  C        1.93424786     -0.54988551      1.38253917
  H        2.93681566     -0.24174472      1.69556995
  H        1.92815944     -1.64694171      1.37810237
  C        0.17082525      0.25486580     -2.53842392
  H       -0.28237290     -0.72162587     -2.73976417
  H       -0.13327187      0.90333098     -3.36788225
  C        0.82845026      0.01297166      2.31695728
  H        0.39807548     -0.78235420      2.93726428
  H        1.23890904      0.75483219      3.00845099
  C        3.74617421     -0.50871966     -1.15923145
  H        4.13002400     -1.23545045     -0.43090078
  H        4.02944162      0.47978714     -0.76068887
  C       -1.69154960      0.55790880      2.02473157
  H       -1.90937929     -0.50583105      2.20552546
  C       -0.59020291     -1.42826206     -0.05301917
  H       -1.68317217     -1.39351734     -0.10926267
  H       -0.24062909     -1.98986385     -0.92273350
  H       -0.32945643     -2.01294182      0.83444029
  C        3.81224904     -0.72993182     -3.67382150
  C        2.10951314      0.55410890     -4.99112935
  H        2.43391064      1.53907072     -4.62735389
  H        1.04237758      0.64411548     -5.22149325
  C        4.42688768     -0.72048023     -2.48177492
  H        5.50513844     -0.88136035     -2.45057208
  C        1.61602694     -1.81654635     -4.21819615
  H        0.57660607     -1.65761291     -4.52210959
  H        2.12286717     -2.30711215     -5.05288469
  H        1.62472043     -2.51827165     -3.37841760
  C        4.59983725     -0.99403987     -4.94370654
  H        5.66854761     -1.06447465     -4.70335278
  H        4.31179166     -1.95712082     -5.38838743
  C        2.87423825      0.23537408     -6.28407887
  H        2.50834328     -0.69140858     -6.74336417
  H        2.71643467      1.03306651     -7.01882681
  C       -1.72709141      1.27227826      3.40061685
  H       -0.81630431      1.03153189      3.95717306
  H       -1.70197770      2.36036845      3.23275470
  C        4.36520432      0.08273177     -6.01299007
  H        4.76201759      1.04374673     -5.64594848
  C       -2.79226830      1.12169532      1.10809649
  H       -2.55515172      2.14750299      0.79945741
  H       -3.76002475      1.14610446      1.61815735
  H       -2.92504809      0.52393401      0.20355872
  C       -2.93876998      0.92088078      4.27967433
  H       -3.86766529      1.10350102      3.72611391
  H       -2.92621522     -0.15686700      4.49214779
  C       -3.02190605      1.71564745      5.59643774
  H       -3.96471714      1.45794965      6.10157078
  H       -3.09276529      2.78565654      5.35281303
  C       -1.86982924      1.52203503      6.60552442
  H       -0.92751668      1.79944421      6.11184484
  C       -1.74341191      0.06548743      7.07936489
  H       -1.53151422     -0.62116612      6.25336229
  H       -0.93367360     -0.03934312      7.81045079
  H       -2.67142968     -0.26888818      7.56132510
  C       -2.05382533      2.46481759      7.80563056
  H       -2.10774082      3.51204837      7.48647780
  H       -1.22393068      2.37268639      8.51559329
  H       -2.98079362      2.23351157      8.34612190



