%Mem=256MB 
%NProc=12 

#P HF/6-31G* SCF(Conver=6) NoSymm Test 
   Pop=chelpg IOp(6/33=2) GFInput GFPrint 

MEP - Input generated by R.E.D.-III.x MOLECULE 

0 1 
  O        4.18582728      6.55549548      4.13463609
  H        4.97085180      6.90205849      3.69014357
  C        0.00000000      0.00000000      0.00000000
  C        1.34830509      0.61721081     -0.47369892
  H        2.13061546     -0.00000000      0.00000000
  C        1.61783414      2.05128181      0.00000000
  H        0.86440164      2.72510564     -0.43131696
  C        1.53517263      2.11987728      1.54837032
  H        2.39347778      1.53218506      1.91434820
  C        0.11972719     -1.40606681     -0.68474317
  H        0.93757494     -1.90118739     -0.14293771
  C        0.02382242      0.01417600      1.54083999
  H        0.82529363     -0.65137733      1.89119051
  H       -0.91246640     -0.37527189      1.95802461
  C        1.74946623      3.57302749      2.10114979
  C        1.40074815      0.30561884     -1.98043776
  H        2.42557938      0.27794409     -2.36398918
  H        0.86992910      1.07618805     -2.55323115
  C        0.26081849      1.43393573      2.09610485
  H       -0.61833089      2.04736370      1.87297083
  H        0.31642232      1.37422211      3.18888927
  C        0.68740430     -1.07170723     -2.10148908
  H       -0.11098961     -1.02990829     -2.84924762
  H        1.37363445     -1.85973577     -2.43083514
  C        2.99966509      2.53416326     -0.46986936
  H        2.97959474      2.74264211     -1.54787389
  H        3.73538093      1.72231542     -0.34415705
  C       -1.02314565     -2.46101072     -0.72461528
  H       -0.59873159     -3.27800862     -1.32799786
  C       -1.21492819      0.80376217     -0.51945196
  H       -2.13866589      0.45506791     -0.04880066
  H       -1.12569602      1.86981673     -0.29644797
  H       -1.34203782      0.71088765     -1.60111583
  C        2.93485602      4.24088322      1.38977123
  C        2.08549207      3.48265655      3.62256936
  H        2.85641264      2.71120713      3.75769820
  H        1.20207647      3.13841263      4.17120632
  C        3.47987997      3.75302331      0.26560278
  H        4.33765832      4.27124046     -0.16466596
  C        0.48681124      4.45351643      1.90137566
  H       -0.34022833      4.11632493      2.53409664
  H        0.68147293      5.49791527      2.15749565
  H        0.15205129      4.43392222      0.85961871
  C        3.48243783      5.50597773      2.02415194
  H        4.37698127      5.83155323      1.47766632
  H        2.75305631      6.32529614      1.95328868
  C        2.58686244      4.78970416      4.25371166
  H        1.80802787      5.56227993      4.23781219
  H        2.84206515      4.62335675      5.30645852
  C       -1.38651087     -3.06863879      0.65264409
  H       -1.81214857     -2.28189869      1.28836185
  H       -2.20173886     -3.78845588      0.48923769
  C        3.80737979      5.32085715      3.51342218
  H        4.63004376      4.59339446      3.61231280
  C       -2.32476941     -2.05158794     -1.44349505
  H       -2.94606948     -1.39413152     -0.82838545
  H       -2.91943713     -2.94586492     -1.66213652
  H       -2.14113071     -1.54385801     -2.39486801
  C       -0.27075290     -3.79000738      1.43374876
  H        0.53933788     -3.08956728      1.66621667
  H       -0.69193847     -4.09117093      2.40128724
  C        0.29565861     -5.02798919      0.71852272
  H        0.78148340     -4.71838633     -0.21641723
  H       -0.54266618     -5.67641845      0.42362843
  C        1.30834454     -5.87988341      1.52056805
  H        1.60979553     -6.69854048      0.85036470
  C        0.68606113     -6.52771114      2.76874046
  H       -0.21887606     -7.09264940      2.51581284
  H        1.39192040     -7.22164607      3.23933078
  H        0.41398191     -5.77954626      3.52205760
  C        2.58336964     -5.09938224      1.88106281
  H        3.03768338     -4.64461354      0.99281786
  H        3.32986921     -5.76050872      2.33589309
  H        2.37661126     -4.29749746      2.59919942



