%Mem=256MB 
%NProc=12 

#P HF/6-31G* SCF(Conver=6) NoSymm Test 
   Pop=chelpg IOp(6/33=2) GFInput GFPrint 

MEP - Input generated by R.E.D.-III.x MOLECULE 

0 1 
  O        4.99882928     -0.24212667     -7.25388060
  H        5.95039907     -0.32547652     -7.10721441
  C        0.00000000      0.00000000      0.00000000
  C        1.55462718      0.00000000     -0.00000000
  H        1.84182759      1.06588129      0.00000000
  C        2.21436054     -0.60648008     -1.24542812
  H        1.94935095     -1.67119058     -1.31242447
  C        1.71055154      0.12387044     -2.51775287
  H        2.11386200      1.14781744     -2.44843242
  C       -0.27320795      0.65277693      1.39995458
  H       -0.04390808      1.72457321      1.28689662
  C       -0.43559010      0.81424090     -1.23588748
  H       -0.11085876      1.85630560     -1.10145274
  H       -1.52467621      0.83987842     -1.34253952
  C        2.30695815     -0.47844638     -3.83833962
  C        1.93337084     -0.55013546      1.38292283
  H        2.93687031     -0.24456733      1.69552234
  H        1.92432933     -1.64716857      1.37891688
  C        0.16974557      0.25161941     -2.53868642
  H       -0.28170173     -0.72598191     -2.73869917
  H       -0.13539022      0.89847810     -3.36898518
  C        0.82931848      0.01686779      2.31695382
  H        0.39782201     -0.77444887      2.94126732
  H        1.24361737      0.75932837      3.00536216
  C        3.74613643     -0.50810294     -1.15905249
  H        4.13051503     -1.23534718     -0.43151743
  H        4.02871877      0.48012764     -0.75937683
  C       -1.68773795      0.56021168      2.02836674
  H       -1.89484653     -0.50483129      2.20998681
  C       -0.58914106     -1.42887237     -0.05010999
  H       -1.68200433     -1.39564822     -0.10771027
  H       -0.23832805     -1.99225171     -0.91822151
  H       -0.32868195     -2.01138016      0.83881669
  C        3.81306727     -0.72644410     -3.67387505
  C        2.10764972      0.55487990     -4.99077749
  H        2.42917480      1.54056584     -4.62640366
  H        1.04037701      0.64218713     -5.22158148
  C        4.42734788     -0.71768005     -2.48166454
  H        5.50582624     -0.87695438     -2.45038001
  C        1.61958560     -1.81725032     -4.21881222
  H        0.57979806     -1.66097832     -4.52292503
  H        2.12789044     -2.30613472     -5.05361465
  H        1.62992821     -2.51938779     -3.37937944
  C        4.60141766     -0.98775538     -4.94384027
  H        5.67021566     -1.05625124     -4.70330399
  H        4.31537767     -1.95102083     -5.38950803
  C        2.87363830      0.23888975     -6.28366995
  H        2.51008692     -0.68838595     -6.74383448
  H        2.71418916      1.03675971     -7.01787230
  C       -1.72991728      1.28484615      3.40928482
  H       -0.71063655      1.49316796      3.75009332
  H       -2.19921078      2.26991260      3.28293423
  C        4.36484836      0.08942862     -6.01227138
  H        4.75949520      1.05103346     -5.64438780
  C       -2.79775398      1.10567102      1.11101993
  H       -2.57317561      2.13202323      0.79506118
  H       -3.75919281      1.12749347      1.63244682
  H       -2.93129745      0.50111708      0.21052750
  C       -2.43024371      0.50869358      4.54423785
  H       -1.93436794     -0.46672052      4.64539702
  H       -2.24222349      1.03270458      5.49020213
  C       -3.94309397      0.26065772      4.39594482
  H       -4.26112796     -0.41527295      5.20364079
  H       -4.13079790     -0.28711897      3.46263182
  C       -4.85490075      1.50623108      4.43277801
  H       -4.52229781      2.20387186      3.65095402
  C       -4.78406758      2.24578878      5.77874517
  H       -3.77498008      2.60780732      5.99987541
  H       -5.45281528      3.11402889      5.78292793
  H       -5.09057626      1.58651895      6.60137320
  C       -6.30587206      1.11161419      4.11322513
  H       -6.38225691      0.62457710      3.13419089
  H       -6.96462602      1.98748242      4.10439722
  H       -6.69428740      0.41118274      4.86378859



