%Mem=256MB 
%NProc=12 

#P HF/6-31G* SCF(Conver=6) NoSymm Test 
   Pop=chelpg IOp(6/33=2) GFInput GFPrint 

MEP - Input generated by R.E.D.-III.x MOLECULE 

0 1 
  O        4.21123761      6.55675936      4.11844965
  H        4.98983721      6.90739764      3.66591931
  C        0.00000000      0.00000000      0.00000000
  C        1.34564142      0.61944899     -0.47231256
  H        2.12778561      0.00000000      0.00000000
  C        1.61290571      2.05458973      0.00000000
  H        0.84824033      2.72200089     -0.42216288
  C        1.54728300      2.12062862      1.54818287
  H        2.41084971      1.53474292      1.90443633
  C        0.08849230     -1.40523440     -0.69263139
  H        0.82617119     -1.98334875     -0.11335640
  C        0.03577805      0.01238782      1.54262206
  H        0.83924545     -0.65838279      1.88006867
  H       -0.89262684     -0.37413548      1.97466409
  C        1.76202573      3.57286783      2.10266063
  C        1.40009677      0.31153302     -1.97570392
  H        2.42293844      0.30589369     -2.36540774
  H        0.84903282      1.06916631     -2.54662833
  C        0.27996203      1.42948191      2.10200955
  H       -0.60137554      2.04392340      1.88941283
  H        0.34316054      1.36342904      3.19409514
  C        0.72021382     -1.08024493     -2.09007953
  H       -0.05428467     -1.07380336     -2.86643224
  H        1.44157865     -1.84941806     -2.38166319
  C        2.98602690      2.54649194     -0.48562340
  H        2.95158523      2.75891643     -1.56247324
  H        3.72702774      1.73761471     -0.37234041
  C       -1.18052307     -2.28974992     -0.80611068
  H       -1.90682489     -1.75568370     -1.43798188
  C       -1.22693202      0.77989964     -0.52617445
  H       -2.15507424      0.35048460     -0.13483000
  H       -1.20905727      1.83176996     -0.23053834
  H       -1.29217854      0.75281513     -1.61816686
  C        2.93681792      4.24718302      1.38019148
  C        2.11502621      3.47885985      3.61994876
  H        2.88998530      2.70962922      3.74417928
  H        1.23884673      3.12982980      4.17713620
  C        3.47031954      3.76481314      0.24816964
  H        4.32121008      4.28736388     -0.19046279
  C        0.49399417      4.44925987      1.91918651
  H       -0.32412892      4.10888258      2.56174954
  H        0.68794059      5.49420176      2.17358891
  H        0.14665780      4.42926526      0.88154395
  C        3.48743335      5.51184545      2.01263517
  H        4.37472368      5.84214592      1.45721377
  H        2.75479318      6.32910835      1.95282109
  C        2.61913586      4.78557391      4.24969866
  H        1.83770973      5.55569732      4.24486394
  H        2.88652301      4.61677783      5.29902450
  C       -0.84277359     -3.61932727     -1.52636478
  H       -0.28740409     -3.40098879     -2.44612665
  H       -0.15795492     -4.19550525     -0.88724453
  C        3.82964496      5.32291432      3.49759275
  H        4.65564782      4.59774161      3.58485769
  C       -1.84960202     -2.57123983      0.55070493
  H       -1.14229489     -3.03941346      1.24705708
  H       -2.70201503     -3.24780574      0.43890694
  H       -2.22645901     -1.66086390      1.02160299
  C       -2.05698273     -4.48284026     -1.90929120
  H       -2.55692297     -4.86489949     -1.01194463
  H       -2.79537092     -3.84425043     -2.41483966
  C       -1.72282340     -5.65633836     -2.84888525
  H       -1.29415896     -5.25002549     -3.77649810
  H       -2.66095366     -6.15181644     -3.14016248
  C       -0.76134821     -6.73174213     -2.29937581
  H        0.18251578     -6.24024606     -2.02302493
  C       -0.43997685     -7.76397608     -3.39207422
  H       -0.00828337     -7.28586448     -4.27893647
  H        0.27448582     -8.51399994     -3.03392434
  H       -1.34765064     -8.29406189     -3.70836709
  C       -1.31466072     -7.42850137     -1.04614265
  H       -1.47794076     -6.72731492     -0.22131705
  H       -0.62261104     -8.20007574     -0.68992563
  H       -2.27339562     -7.91721244     -1.26366352



