%Mem=256MB 
%NProc=12 

#P HF/6-31G* SCF(Conver=6) NoSymm Test 
   Pop=chelpg IOp(6/33=2) GFInput GFPrint 

MEP - Input generated by R.E.D.-III.x MOLECULE 

0 1 
  O        4.90453957     -0.18760259     -7.29629702
  H        5.85726614     -0.27919107     -7.16262298
  C        0.00000000      0.00000000      0.00000000
  C        1.55041313      0.00000000     -0.00000000
  H        1.83953440      1.06470739     -0.00000000
  C        2.19485821     -0.59669577     -1.25701758
  H        1.92745539     -1.66000769     -1.33406962
  C        1.67671234      0.15389939     -2.51525877
  H        2.09220821      1.17234648     -2.43786052
  C       -0.25605048      0.64820903      1.39668447
  H        0.10368312      1.68020481      1.27557495
  C       -0.45524571      0.84101808     -1.20511527
  H       -0.12850562      1.88021149     -1.05420269
  H       -1.55047902      0.86526407     -1.28382287
  C        2.25357660     -0.43848970     -3.84956601
  C        1.92911185     -0.55148087      1.38873572
  H        2.90917509     -0.19519680      1.72131209
  H        1.98199273     -1.64717238      1.37143397
  C        0.13437777      0.30402449     -2.52633504
  H       -0.33221512     -0.66049004     -2.75102227
  H       -0.16141508      0.97669533     -3.33910447
  C        0.77615543     -0.06671586      2.32337081
  H        0.32609634     -0.91901950      2.83941376
  H        1.14130246      0.60932775      3.10355504
  C        3.72734680     -0.50130398     -1.18975617
  H        4.11884548     -1.23381969     -0.47123446
  H        4.01665629      0.48392697     -0.78748867
  C       -1.72064244      0.79405941      1.91496674
  H       -2.35195960      0.91720268      1.02315510
  C       -0.59057883     -1.42436623     -0.08954178
  H       -1.68401385     -1.38190313     -0.12460165
  H       -0.26205008     -1.95167688     -0.98837368
  H       -0.30980526     -2.04419897      0.76662405
  C        3.76022823     -0.69807405     -3.70641772
  C        2.04774310      0.60781938     -4.98925995
  H        2.38056536      1.58754891     -4.61898085
  H        0.97849463      0.70472563     -5.20644155
  C        4.39045753     -0.70377678     -2.52250825
  H        5.46817735     -0.87021481     -2.50704751
  C        1.55316526     -1.76888987     -4.23587686
  H        0.51074179     -1.60329751     -4.52568361
  H        2.04811062     -2.25169260     -5.08211434
  H        1.56954656     -2.48019981     -3.40436439
  C        4.53047554     -0.95309826     -4.98880143
  H        5.60159936     -1.03197787     -4.76231561
  H        4.23155658     -1.90979379     -5.44014621
  C        2.79552970      0.29938044     -6.29457107
  H        2.41947653     -0.62064255     -6.75917249
  H        2.63268651      1.10564142     -7.01878488
  C       -2.26289110     -0.41390236      2.71607576
  H       -2.09303717     -1.33717156      2.15301003
  H       -1.67594317     -0.51451148      3.63851016
  C        4.28880005      0.13634448     -6.04356961
  H        4.69527668      1.09128144     -5.67125253
  C       -1.84842298      2.09334598      2.73714366
  H       -1.23576745      2.04433887      3.64642178
  H       -2.88029403      2.28767381      3.04458974
  H       -1.51237586      2.95923084      2.15628365
  C       -3.74946513     -0.34573930      3.12986501
  H       -3.97068054     -1.23974154      3.72682085
  H       -3.89841862      0.49862230      3.81384480
  C       -4.78265315     -0.22548324      1.99402053
  H       -4.60475476      0.70464349      1.43745301
  H       -5.77837416     -0.11279125      2.44826264
  C       -4.84710097     -1.39272148      0.98648457
  H       -3.85422029     -1.50945177      0.52961420
  C       -5.83759320     -1.06529763     -0.14258022
  H       -5.56574084     -0.13597892     -0.65637159
  H       -5.86859980     -1.86572560     -0.89062795
  H       -6.85374464     -0.94104564      0.25335603
  C       -5.21486990     -2.72733247      1.65446442
  H       -4.48068824     -3.02916330      2.40829321
  H       -5.27484301     -3.53215096      0.91300921
  H       -6.19246345     -2.65810202      2.14923246



