%Mem=256MB 
%NProc=12 

#P HF/6-31G* SCF(Conver=6) NoSymm Test 
   Pop=chelpg IOp(6/33=2) GFInput GFPrint 

MEP - Input generated by R.E.D.-III.x MOLECULE 

0 1 
  O        5.01080724     -0.22473354     -7.24813061
  H        5.96194510     -0.31108107     -7.10039386
  C        0.00000000      0.00000000      0.00000000
  C        1.55489767     -0.00000000      0.00000000
  H        1.84122193      1.06608906      0.00000000
  C        2.21528514     -0.60524915     -1.24589883
  H        1.94786742     -1.66921226     -1.31619141
  C        1.71482499      0.13005343     -2.51636860
  H        2.11893289      1.15334387     -2.44238898
  C       -0.27226814      0.64908475      1.40239546
  H       -0.03779430      1.71996023      1.29179401
  C       -0.43278179      0.81801433     -1.23489988
  H       -0.10854028      1.85974063     -1.09676190
  H       -1.52144360      0.84426815     -1.34483731
  C        2.31234754     -0.46768706     -3.83847980
  C        1.93613915     -0.54928366      1.38228810
  H        2.93710414     -0.23649017      1.69584485
  H        1.93555690     -1.64639188      1.37693226
  C        0.17425828      0.25910060     -2.53846847
  H       -0.27752291     -0.71763295     -2.74190697
  H       -0.12977473      0.90866596     -3.36709022
  C        0.82714733      0.00698553      2.31677598
  H        0.39446378     -0.79435331      2.92756142
  H        1.23236381      0.74324943      3.01726518
  C        3.74706766     -0.51033349     -1.15665264
  H        4.12871566     -1.24071632     -0.43082970
  H        4.03106500      0.47599872     -0.75329776
  C       -1.68898462      0.56664511      2.02976878
  H       -1.91277779     -0.49602614      2.20147556
  C       -0.59223497     -1.42707073     -0.05356148
  H       -1.68548077     -1.38985824     -0.10442086
  H       -0.24803578     -1.98760310     -0.92620461
  H       -0.32817266     -2.01403702      0.83144468
  C        3.81751055     -0.71996497     -3.67212618
  C        2.11838013      0.57167657     -4.98636563
  H        2.44261865      1.55449254     -4.61672075
  H        1.05175851      0.66370361     -5.21840832
  C        4.42986665     -0.71687851     -2.47888883
  H        5.50791102     -0.87884365     -2.44641603
  C        1.62250218     -1.80297797     -4.22657774
  H        0.58374929     -1.64284049     -4.53221805
  H        2.13138321     -2.28936523     -5.06247746
  H        1.62939387     -2.50881729     -3.39024622
  C        4.60745695     -0.97844058     -4.94171395
  H        5.67561578     -1.05089278     -4.69952435
  H        4.31951526     -1.93911377     -5.39170280
  C        2.88558145      0.25916267     -6.27938711
  H        2.51981976     -0.66483306     -6.74435595
  H        2.72990641      1.06085724     -7.01022496
  C       -1.69356495      1.28055845      3.40610748
  H       -0.87882695      0.88197427      4.01978524
  H       -1.45143694      2.34126784      3.24168763
  C        4.37588034      0.10376904     -6.00619899
  H        4.77295563      1.06262040     -5.63377182
  C       -2.79015298      1.14145353      1.12245897
  H       -2.57803982      2.18557021      0.85945483
  H       -3.76557996      1.11745147      1.61742922
  H       -2.89272098      0.57810222      0.19265895
  C       -2.99861665      1.20926131      4.22439123
  H       -2.84582525      1.78109105      5.14863271
  H       -3.80150793      1.73411400      3.69250756
  C       -3.50061762     -0.20412505      4.57609179
  H       -3.75057529     -0.74022942      3.65044348
  H       -4.44753796     -0.10584904      5.12748173
  C       -2.54902112     -1.08923735      5.40879655
  H       -1.60584224     -1.19823342      4.85412777
  C       -3.14633329     -2.49517181      5.58090570
  H       -3.35031683     -2.96445724      4.61152281
  H       -2.46632272     -3.15212011      6.13522793
  H       -4.09265861     -2.45256302      6.13537354
  C       -2.22004113     -0.47266475      6.77780321
  H       -1.71733813      0.49544871      6.68534530
  H       -1.56174621     -1.13145579      7.35552847
  H       -3.13476412     -0.31912146      7.36515658



