%Mem=256MB 
%NProc=12 

#P HF/6-31G* SCF(Conver=6) NoSymm Test 
   Pop=chelpg IOp(6/33=2) GFInput GFPrint 

MEP - Input generated by R.E.D.-III.x MOLECULE 

0 1 
  O       -3.72726271     -3.61534278     -4.12532811
  H       -3.87762233     -4.45624425     -3.67341670
  C        1.60009430      2.06306480      0.00000000
  C        1.32665104      0.60785731      0.47340969
  H        2.11706345      0.00000000      0.00000000
  C        0.00000000      0.00000000      0.00000000
  H       -0.83398521      0.57923403      0.42116615
  C       -0.07756576      0.04777973     -1.54859648
  H        0.70064379     -0.64830943     -1.90325522
  C        2.98339642      2.31541308      0.69495460
  H        3.71319425      1.72250270      0.12418934
  C        1.60064000      2.02643384     -1.54202015
  H        2.44754514      1.41099428     -1.87871058
  H        1.75031554      3.02247797     -1.97123817
  C       -1.43361279     -0.51305590     -2.10469775
  C        1.64016890      0.62842594      1.97764931
  H        1.90949236     -0.36069055      2.36136808
  H        0.76658957      0.96207968      2.55148063
  C        0.28660354      1.44444810     -2.10386337
  H       -0.52405089      2.15042983     -1.89462535
  H        0.36856518      1.39703374     -3.19564753
  C        2.80893109      1.64573430      2.09821376
  H        2.58485179      2.40485376      2.85687666
  H        3.73559115      1.15803119      2.41724898
  C       -0.14390843     -1.45162617      0.48502034
  H       -0.35967533     -1.47000365      1.56161181
  H        0.82104207     -1.97366208      0.37293690
  C        3.53539552      3.75933720      0.79301846
  H        2.80522659      4.34909394      1.36627533
  C        0.54558656      3.06599203      0.52087598
  H        0.74065550      4.06939897      0.12743699
  H       -0.46974922      2.79489368      0.22149686
  H        0.55130724      3.13785127      1.61280052
  C       -1.80260730     -1.81720622     -1.38337389
  C       -1.25533728     -0.83107429     -3.62215133
  H       -0.32001630     -1.39452281     -3.74638820
  H       -1.13060770      0.10433130     -4.17837273
  C       -1.20671337     -2.21758984     -0.25049773
  H       -1.50710357     -3.17025294      0.18730703
  C       -2.59239114      0.50336946     -1.92108031
  H       -2.46205366      1.37959098     -2.56398962
  H       -3.55862185      0.06036141     -2.17482240
  H       -2.65719529      0.84550744     -0.88354118
  C       -2.89416816     -2.65893587     -2.01783662
  H       -2.99929755     -3.60020536     -1.46301392
  H       -3.86535876     -2.14736208     -1.95941217
  C       -2.39879779     -1.63848752     -4.25354402
  H       -3.33642716     -1.06876354     -4.24926537
  H       -2.16875635     -1.85588196     -5.30277840
  C        4.85600147      3.83411036      1.60748849
  H        5.10694780      4.89709874      1.71952662
  H        4.67818538      3.46199781      2.62464411
  C       -2.62508309     -2.94401608     -3.50247094
  H       -1.71984020     -3.56762968     -3.58854861
  C        3.70956986      4.45108309     -0.57204640
  H        4.29609029      3.84077745     -1.26792175
  H        4.22881825      5.40938562     -0.45202529
  H        2.74926806      4.66121861     -1.04943991
  C        6.06543529      3.08882193      1.01822215
  H        5.80566497      2.03346292      0.86633879
  H        6.30244869      3.48353789      0.02274400
  C        7.32298413      3.13355068      1.90737069
  H        8.09069426      2.48377944      1.46134805
  H        7.07704942      2.68600111      2.88135737
  C        7.95545097      4.51979296      2.15531376
  H        7.19760185      5.16813427      2.61776799
  C        8.42202419      5.19275988      0.85472579
  H        7.59494689      5.36519322      0.15851090
  H        8.88626612      6.16380225      1.06140415
  H        9.16689496      4.57133974      0.34053845
  C        9.12309273      4.39869085      3.14780052
  H        8.79743511      3.95524078      4.09582501
  H        9.56124459      5.37871168      3.36879621
  H        9.91941152      3.76319869      2.73918494



