%Mem=256MB 
%NProc=12 

#P HF/6-31G* SCF(Conver=6) NoSymm Test 
   Pop=chelpg IOp(6/33=2) GFInput GFPrint 

MEP - Input generated by R.E.D.-III.x MOLECULE 

0 1 
  O        4.99642717     -0.21971438     -7.25471009
  H        5.94768220     -0.30743535     -7.10853854
  C        0.00000000      0.00000000      0.00000000
  C        1.55451497     -0.00000000      0.00000000
  H        1.84033327      1.06614583      0.00000000
  C        2.21273029     -0.60322347     -1.24759138
  H        1.94546112     -1.66712823     -1.31899289
  C        1.71003963      0.13443038     -2.51629912
  H        2.11676399      1.15669109     -2.44219529
  C       -0.26791348      0.64490592      1.40445186
  H       -0.01507351      1.70966240      1.29360897
  C       -0.43540967      0.82273272     -1.22991770
  H       -0.11079443      1.86397425     -1.08914963
  H       -1.52486499      0.84846554     -1.33555716
  C        2.30422523     -0.46351199     -3.83995208
  C        1.93821063     -0.55009663      1.38261517
  H        2.93362158     -0.22372904      1.70005474
  H        1.95429041     -1.64709011      1.37287835
  C        0.16943648      0.26768621     -2.53649779
  H       -0.28512756     -0.70687096     -2.74376865
  H       -0.13308574      0.92137939     -3.36240580
  C        0.81701942     -0.01658012      2.31735981
  H        0.37685320     -0.83438774      2.90001552
  H        1.20772305      0.70207664      3.04483476
  C        3.74464310     -0.50832789     -1.16150493
  H        4.12766411     -1.23854432     -0.43623176
  H        4.02945861      0.47811137     -0.75897372
  C       -1.68682889      0.56774454      2.02086209
  H       -1.93589262     -0.49760777      2.13299968
  C       -0.59473948     -1.42544568     -0.05958983
  H       -1.68817599     -1.38507722     -0.10897220
  H       -0.25353203     -1.98216056     -0.93576043
  H       -0.33048132     -2.01787490      0.82171087
  C        3.80964017     -0.71739600     -3.67703541
  C        2.10844536      0.57626667     -4.98717212
  H        2.43353863      1.55894926     -4.61787053
  H        1.04146542      0.66844700     -5.21734582
  C        4.42463110     -0.71525009     -2.48515179
  H        5.50260283     -0.87818650     -2.45510239
  C        1.61248316     -1.79819630     -4.22688081
  H        0.57352017     -1.63713312     -4.53134583
  H        2.11987869     -2.28530981     -5.06324986
  H        1.61957193     -2.50391613     -3.39042717
  C        4.59638747     -0.97593258     -4.94854805
  H        5.66498303     -1.05005062     -4.70880082
  H        4.30612215     -1.93574551     -5.39892296
  C        2.87313272      0.26423846     -6.28176335
  H        2.50603904     -0.65920767     -6.74678165
  H        2.71664211      1.06658462     -7.01171096
  C       -1.74108585      1.15706500      3.45707589
  H       -2.74618926      0.95675736      3.85092216
  H       -1.05170368      0.60092525      4.10526773
  C        4.36379472      0.10768634     -6.01132139
  H        4.76212129      1.06579570     -5.63831952
  C       -2.78073636      1.20187961      1.14137911
  H       -2.52451036      2.22497777      0.84415849
  H       -3.73260550      1.24235404      1.68421853
  H       -2.95391284      0.62853671      0.22730644
  C       -1.43560576      2.65839162      3.59168683
  H       -0.44822658      2.87025197      3.16211802
  H       -2.14995870      3.24260017      2.99893641
  C       -1.42790326      3.16832231      5.04562157
  H       -1.09051482      4.21554816      5.04780724
  H       -0.66906758      2.60524040      5.60824200
  C       -2.76133222      3.09423477      5.81998321
  H       -3.09411260      2.04660328      5.83644915
  C       -3.86945842      3.93103502      5.16125276
  H       -4.09741533      3.58980788      4.14631190
  H       -4.79718728      3.87851476      5.74239006
  H       -3.57535119      4.98703496      5.10002236
  C       -2.55110731      3.53187882      7.27852911
  H       -1.78999227      2.91827228      7.77415215
  H       -3.47829157      3.44839359      7.85698959
  H       -2.22072621      4.57744162      7.32939504



