%Mem=256MB 
%NProc=12 

#P HF/6-31G* SCF(Conver=6) NoSymm Test 
   Pop=chelpg IOp(6/33=2) GFInput GFPrint 

MEP - Input generated by R.E.D.-III.x MOLECULE 

0 1 
  O        0.44101139     -3.39526071      7.25060044
  H        0.27972642     -4.33666972      7.10334392
  C        1.50762654      1.50151052      0.00000000
  C        1.10387759     -0.00000000      0.00000000
  H        0.00000000      0.00000000      0.00000000
  C        1.51776235     -0.79430997      1.24575655
  H        2.61471241     -0.81212337      1.31471712
  C        0.93890101     -0.12009704      2.51693481
  H       -0.15417578     -0.24632543      2.44499334
  C        0.95272238      1.93327279     -1.40282414
  H       -0.14222009      1.98731290     -1.29270372
  C        0.82919104      2.13200850      1.23422604
  H       -0.26088980      2.08793848      1.09586096
  H        1.08524855      3.19054751      1.34343185
  C        1.36443870     -0.85167927      3.83839758
  C        1.53575560     -0.51080565     -1.38221640
  H        0.97460558     -1.39683549     -1.69553370
  H        2.59563888     -0.79409519     -1.37684885
  C        1.21204570      1.40156205      2.53828361
  H        2.27227224      1.58595753      2.74177714
  H        0.66293367      1.86335236      3.36667582
  C        1.28541271      0.70401685     -2.31704431
  H        2.16996808      0.91339772     -2.93050530
  H        0.46742689      0.50309079     -3.01528746
  C        1.02866429     -2.24906519      1.15783632
  H        1.63301951     -2.80707493      0.43030910
  H        0.00125629     -2.26754217      0.75747515
  C        1.40407536      3.27839883     -2.02937156
  H        2.48874295      3.21855306     -2.20802487
  C        3.03973898      1.70183873      0.05445408
  H        3.28895450      2.76687538      0.10529012
  H        3.49084582      1.22356418      0.92732719
  H        3.53799753      1.29401128     -0.83033589
  C        1.21956597     -2.37101058      3.67273646
  C        0.41237239     -0.39597078      4.98796690
  H       -0.62153257     -0.45604644      4.62035023
  H        0.59892002      0.65835278      5.21942336
  C        1.05522655     -2.96202516      2.48006197
  H        0.93324386     -4.04533979      2.44809270
  C        2.83318925     -0.52948905      4.22387793
  H        2.94692764      0.51566882      4.52847268
  H        3.17329641     -1.14582238      5.05976050
  H        3.51204449     -0.71890021      3.38660654
  C        1.26850446     -3.20042372      4.94246568
  H        1.06281844     -4.25127611      4.70105733
  H        2.27181667     -3.16960070      5.39043056
  C        0.51901237     -1.21741726      6.28105109
  H        1.50691500     -1.10198746      6.74415432
  H       -0.21413562     -0.86019643      7.01314400
  C        0.72683625      3.47977283     -3.40828863
  H        0.84939116      2.56970645     -4.00731146
  H       -0.35517170      3.59573379     -3.24940434
  C        0.28464887     -2.69750760      6.00877067
  H       -0.74488300     -2.83430812      5.63847202
  C        1.13964978      4.49205107     -1.12108792
  H        0.07782760      4.55587570     -0.85120588
  H        1.41179536      5.42674864     -1.62021254
  H        1.71605145      4.44734437     -0.19463612
  C        1.26642990      4.65863307     -4.23636979
  H        1.02231868      5.61220228     -3.75444052
  H        2.36426606      4.60269261     -4.25119381
  C        0.77316785      4.68036820     -5.69507379
  H        1.09434105      3.75042782     -6.18636558
  H        1.28445972      5.49641503     -6.22712412
  C       -0.74666571      4.84388910     -5.91014417
  H       -1.25786822      4.01962730     -5.39237790
  C       -1.08608727      4.72927889     -7.40494644
  H       -0.74420572      3.77425337     -7.82029914
  H       -2.16643625      4.80156571     -7.57490150
  H       -0.60509213      5.53258608     -7.97787321
  C       -1.28182868      6.16532925     -5.33602044
  H       -1.12557741      6.23982513     -4.25495802
  H       -2.35756333      6.26474431     -5.52057924
  H       -0.78369810      7.02378973     -5.80531563



