%Mem=256MB 
%NProc=12 

#P HF/6-31G* SCF(Conver=6) NoSymm Test 
   Pop=chelpg IOp(6/33=2) GFInput GFPrint 

MEP - Input generated by R.E.D.-III.x MOLECULE 

0 1 
  O        0.42502424     -3.35339906      7.26900851
  H        0.25403437     -4.29387603      7.12684632
  C        1.51081769      1.50238641      0.00000000
  C        1.10334506      0.00000000      0.00000000
  H        0.00000000      0.00000000      0.00000000
  C        1.51086184     -0.79286054      1.24883344
  H        2.60720266     -0.82777111      1.31690575
  C        0.94374692     -0.10399154      2.51895387
  H       -0.15093541     -0.21797292      2.45058620
  C        0.93158114      1.91361441     -1.39839380
  H       -0.15770030      1.84873973     -1.26889630
  C        0.84253448      2.14275518      1.23208386
  H       -0.24870474      2.10313484      1.10695160
  H        1.10980343      3.20210812      1.32556090
  C        1.36429251     -0.83487677      3.84257413
  C        1.53839819     -0.51155086     -1.38533003
  H        0.96147961     -1.38453270     -1.70658570
  H        2.59201950     -0.81701315     -1.37119585
  C        1.23228505      1.41606435      2.53584281
  H        2.29557690      1.59179957      2.72950732
  H        0.69371855      1.88349663      3.36785916
  C        1.32429252      0.71411890     -2.31943487
  H        2.23420083      0.93143644     -2.88792518
  H        0.53769979      0.53100931     -3.05977737
  C        1.00181196     -2.24123348      1.16968113
  H        1.59538126     -2.80998597      0.44156730
  H       -0.02776827     -2.24831501      0.77462969
  C        1.16814885      3.29612930     -2.07206736
  H        0.66814083      3.19495736     -3.04784611
  C        3.04525611      1.68204399      0.07507821
  H        3.30406748      2.73201566      0.23950238
  H        3.48390910      1.11253016      0.89814111
  H        3.54596134      1.35989999     -0.84159379
  C        1.20244588     -2.35331160      3.68412686
  C        0.41963776     -0.36441415      4.99239943
  H       -0.61566490     -0.41552793      4.62739546
  H        0.61737940      0.68891498      5.21899840
  C        1.02638541     -2.94823632      2.49505770
  H        0.89249450     -4.03028740      2.46892755
  C        2.83699006     -0.52640255      4.22375801
  H        2.96239753      0.51954059      4.52088440
  H        3.17121010     -1.14076945      5.06344691
  H        3.51258470     -0.72882772      3.38693736
  C        1.24772438     -3.17731701      4.95749711
  H        1.03127876     -4.22726202      4.72167753
  H        2.25270743     -3.15381083      5.40213072
  C        0.52078765     -1.18101739      6.28906713
  H        1.51051293     -1.07292553      6.75007778
  H       -0.20758963     -0.81329739      7.02072664
  C        0.49333763      4.48872026     -1.35131186
  H        0.95690341      4.62153978     -0.36552072
  H        0.74683786      5.39750794     -1.91390826
  C        0.27177454     -2.66010813      6.02430676
  H       -0.76003130     -2.78890023      5.65747622
  C        2.62837213      3.67338472     -2.39460843
  H        3.17363943      4.00631481     -1.50671134
  H        2.64320028      4.50213722     -3.11168666
  H        3.19004673      2.84815425     -2.84192304
  C       -1.03605522      4.43498076     -1.16860366
  H       -1.30236655      3.60107607     -0.50846782
  H       -1.34201731      5.33967830     -0.62766301
  C       -1.86831858      4.30696054     -2.45909667
  H       -2.93131969      4.26258499     -2.17907790
  H       -1.64814993      3.34362115     -2.93879958
  C       -1.69358215      5.42390528     -3.50976168
  H       -0.63421381      5.45911312     -3.80265347
  C       -2.07674240      6.80882053     -2.96417276
  H       -1.45550787      7.10428991     -2.11256090
  H       -1.96430118      7.57830922     -3.73640461
  H       -3.12362310      6.82053807     -2.63372513
  C       -2.50853978      5.09773827     -4.77172114
  H       -2.21994644      4.12860727     -5.19479288
  H       -2.36399541      5.85865980     -5.54716372
  H       -3.58143122      5.05506152     -4.54390655



