%Mem=256MB 
%NProc=12 

#P HF/6-31G* SCF(Conver=6) NoSymm Test 
   Pop=chelpg IOp(6/33=2) GFInput GFPrint 

MEP - Input generated by R.E.D.-III.x MOLECULE 

0 1 
  O        4.90890445     -0.17304628     -7.29375517
  H        5.86142197     -0.26601517     -7.15954907
  C        0.00000000      0.00000000      0.00000000
  C        1.54993077      0.00000000     -0.00000000
  H        1.83861989      1.06502474      0.00000000
  C        2.19371502     -0.59702327     -1.25726870
  H        1.92275559     -1.65939495     -1.33564608
  C        1.67768112      0.15722927     -2.51430416
  H        2.09412706      1.17504498     -2.43374027
  C       -0.25989370      0.64797081      1.39585255
  H        0.07300497      1.68889064      1.27274396
  C       -0.45555277      0.84248494     -1.20441629
  H       -0.12979409      1.88164767     -1.05148637
  H       -1.55082816      0.86593313     -1.28353941
  C        2.25484968     -0.43179417     -3.84995997
  C        1.92900263     -0.54896063      1.38916692
  H        2.91512438     -0.20383974      1.71554245
  H        1.96753397     -1.64532610      1.37754560
  C        0.13542310      0.30911144     -2.52647095
  H       -0.33162969     -0.65413273     -2.75540478
  H       -0.15878611      0.98480641     -3.33731300
  C        0.78682635     -0.04317581      2.32546708
  H        0.34455097     -0.88081312      2.87181477
  H        1.16256059      0.65433624      3.08133382
  C        3.72641163     -0.50592048     -1.18910913
  H        4.11556349     -1.24200282     -0.47296552
  H        4.01808683      0.47704482     -0.78301908
  C       -1.72501013      0.74454832      1.91340260
  H       -2.36667119      0.84054932      1.02400858
  C       -0.59515465     -1.42267832     -0.09089829
  H       -1.68978016     -1.38015281     -0.08560750
  H       -0.29833728     -1.93500895     -1.00920603
  H       -0.28367327     -2.05666118      0.74406571
  C        3.76104463     -0.69386579     -3.70647716
  C        2.05121243      0.61828902     -4.98647768
  H        2.38506110      1.59640673     -4.61288170
  H        0.98226851      0.71730316     -5.20420570
  C        4.39017568     -0.70504660     -2.52204314
  H        5.46758843     -0.87341677     -2.50622814
  C        1.55349194     -1.76033150     -4.24085760
  H        0.51201816     -1.59261445     -4.53273352
  H        2.04990588     -2.24182272     -5.08698697
  H        1.56709139     -2.47342486     -3.41083816
  C        4.53179396     -0.94575240     -4.98920583
  H        5.60268670     -1.02696296     -4.76241287
  H        4.23170962     -1.90048701     -5.44389941
  C        2.79952895      0.31321296     -6.29225713
  H        2.42256632     -0.60466426     -6.76042167
  H        2.63831743      1.12220791     -7.01379248
  C       -2.23438849     -0.47792560      2.71429153
  H       -1.86426690     -1.40667790      2.26719132
  H       -1.80972194     -0.43919489      3.72608379
  C        4.29241457      0.14746967     -6.04052796
  H        4.69970003      1.10065576     -5.66457948
  C       -1.90306302      2.03645886      2.73745318
  H       -1.24164690      2.03428500      3.61301103
  H       -2.92971685      2.15384884      3.09862760
  H       -1.66133102      2.92270351      2.14032161
  C       -3.76759243     -0.57340263      2.79804096
  H       -4.17798152      0.31337808      3.29576998
  H       -4.17360063     -0.55536183      1.77671730
  C       -4.28854439     -1.84505158      3.49271148
  H       -3.91704670     -2.72110936      2.94145373
  H       -5.38447844     -1.87167758      3.39975332
  C       -3.92956824     -2.02072577      4.98387540
  H       -2.83424905     -2.01141239      5.07842763
  C       -4.42289624     -3.38566806      5.49036029
  H       -4.00233163     -4.20724375      4.89909053
  H       -4.14161213     -3.54748298      6.53722675
  H       -5.51647411     -3.45487473      5.42562889
  C       -4.48790013     -0.88760518      5.85937892
  H       -4.08868671      0.09087350      5.57349925
  H       -4.23834231     -1.04920369      6.91423796
  H       -5.58182757     -0.83798626      5.78067414



