%Mem=256MB 
%NProc=12 

#P HF/6-31G* SCF(Conver=6) NoSymm Test 
   Pop=chelpg IOp(6/33=2) GFInput GFPrint 

MEP - Input generated by R.E.D.-III.x MOLECULE 

0 1 
  O        5.00531258     -0.23967722     -7.25106656
  H        5.95660189     -0.32529116     -7.10390238
  C        0.00000000      0.00000000      0.00000000
  C        1.55477810      0.00000000     -0.00000000
  H        1.84131410      1.06606575      0.00000000
  C        2.21517525     -0.60565023     -1.24570833
  H        1.94941445     -1.67010985     -1.31457526
  C        1.71338130      0.12705993     -2.51719723
  H        2.11766421      1.15050215     -2.44588996
  C       -0.27331473      0.64926612      1.40208347
  H       -0.04203495      1.72076351      1.29118427
  C       -0.43312406      0.81709158     -1.23524946
  H       -0.10779900      1.85864930     -1.09836200
  H       -1.52186948      0.84414342     -1.34411038
  C        2.31024579     -0.47404992     -3.83821969
  C        1.93518576     -0.54944371      1.38246897
  H        2.93692485     -0.23887158      1.69575170
  H        1.93188253     -1.64653689      1.37767019
  C        0.17285354      0.25638329     -2.53860622
  H       -0.27952871     -0.72033963     -2.74067613
  H       -0.13141165      0.90514798     -3.36778475
  C        0.82783178      0.01011093      2.31691691
  H        0.39615714     -0.78797405      2.93278457
  H        1.23546532      0.74934980      3.01284796
  C        3.74689972     -0.50859592     -1.15768613
  H        4.12990700     -1.23657056     -0.43017003
  H        4.02993195      0.47918331     -0.75718015
  C       -1.69019757      0.56200835      2.02746300
  H       -1.91279073     -0.50116775      2.20633134
  C       -0.59135014     -1.42759309     -0.05290234
  H       -1.68441537     -1.39139698     -0.10694284
  H       -0.24405549     -1.98923926     -0.92354851
  H       -0.32962970     -2.01281045      0.83392917
  C        3.81564316     -0.72524691     -3.67256424
  C        2.11468654      0.56194283     -4.98887837
  H        2.43883929      1.54597514     -4.62240851
  H        1.04781230      0.65271962     -5.22017713
  C        4.42898647     -0.71822887     -2.47984871
  H        5.50715982     -0.87947823     -2.44777549
  C        1.62040864     -1.81055603     -4.22207977
  H        0.58083697     -1.65131234     -4.52537306
  H        2.12755628     -2.29809436     -5.05834165
  H        1.62967494     -2.51482757     -3.38442429
  C        4.60424312     -0.98729008     -4.94224444
  H        5.67268954     -1.05893955     -4.70105353
  H        4.31587514     -1.94927268     -5.38913889
  C        2.88075115      0.24610348     -6.28175742
  H        2.51487579     -0.67931607     -6.74380204
  H        2.72416294      1.04571404     -7.01468028
  C       -1.71169169      1.26984574      3.40532329
  H       -0.84855183      0.94089591      3.99512426
  H       -1.57730645      2.35135442      3.24852903
  C        4.37134362      0.09194298     -6.00946062
  H        4.76839614      1.05192005     -5.63991474
  C       -2.79201908      1.13124289      1.11632494
  H       -2.57234118      2.16974469      0.83795407
  H       -3.76457149      1.12160561      1.61718406
  H       -2.90384300      0.55617026      0.19463884
  C       -2.97289990      1.03249876      4.25270900
  H       -3.85441091      1.43148816      3.73842665
  H       -3.13391012     -0.04982828      4.35045177
  C       -2.86221425      1.67158919      5.64678160
  H       -2.66068946      2.74582660      5.52497157
  H       -1.98088002      1.25495254      6.15558656
  C       -4.08331488      1.51065044      6.58216662
  H       -3.81281735      2.01817152      7.52001847
  C       -4.37230847      0.04127607      6.93134785
  H       -3.47964395     -0.45841103      7.32585570
  H       -5.15877005     -0.03155627      7.69122206
  H       -4.71166322     -0.52311271      6.05511978
  C       -5.34260404      2.20744785      6.04040463
  H       -5.14398502      3.25774675      5.79647520
  H       -6.15002734      2.18389436      6.78120174
  H       -5.71779492      1.71862159      5.13390280



