%Mem=256MB 
%NProc=12 

#P HF/6-31G* SCF(Conver=6) NoSymm Test 
   Pop=chelpg IOp(6/33=2) GFInput GFPrint 

MEP - Input generated by R.E.D.-III.x MOLECULE 

0 1 
  O        4.99430437     -0.25682669     -7.25637649
  H        5.94573212     -0.34328808     -7.11059881
  C        0.00000000      0.00000000      0.00000000
  C        1.55446572      0.00000000     -0.00000000
  H        1.84161502      1.06588458      0.00000000
  C        2.21384088     -0.60680466     -1.24562738
  H        1.94873495     -1.67152424     -1.31215708
  C        1.70964343      0.12312611     -2.51810073
  H        2.11363428      1.14685325     -2.44957284
  C       -0.27347611      0.65197329      1.39982073
  H       -0.04382912      1.72376517      1.28762275
  C       -0.43569890      0.81485580     -1.23532642
  H       -0.11032148      1.85671752     -1.10076306
  H       -1.52490886      0.84105074     -1.34095828
  C        2.30471929     -0.48066403     -3.83872362
  C        1.93332653     -0.55010422      1.38303277
  H        2.93623360     -0.24318202      1.69617576
  H        1.92589697     -1.64717160      1.37843445
  C        0.16876232      0.25198259     -2.53833617
  H       -0.28347048     -0.72532038     -2.73781752
  H       -0.13629798      0.89885533     -3.36866488
  C        0.82780331      0.01461679      2.31697062
  H        0.39548818     -0.77850199      2.93838390
  H        1.24024478      0.75547803      3.00823738
  C        3.74556780     -0.50877298     -1.16019548
  H        4.13002272     -1.23442724     -0.43112531
  H        4.02882461      0.48034233     -0.76319570
  C       -1.68769210      0.55893475      2.02749141
  H       -1.89473960     -0.50654161      2.20605970
  C       -0.58929406     -1.42887489     -0.05088759
  H       -1.68210563     -1.39519210     -0.10957140
  H       -0.23774365     -1.99236965     -0.91865040
  H       -0.32980381     -2.01141131      0.83834100
  C        3.81022801     -0.73218419     -3.67454199
  C        2.10839824      0.55314599     -4.99115785
  H        2.43436264      1.53759736     -4.62738047
  H        1.04120710      0.64476110     -5.22073339
  C        4.42551159     -0.72216676     -2.48284781
  H        5.50368162     -0.88364712     -2.45210645
  C        1.61368445     -1.81761604     -4.21909707
  H        0.57484844     -1.65834737     -4.52489603
  H        2.12156407     -2.30908915     -5.05260210
  H        1.62047299     -2.51889573     -3.37894825
  C        4.59700228     -0.99755281     -4.94469393
  H        5.66576878     -1.06872074     -4.70480123
  H        4.30796766     -1.96067002     -5.38871066
  C        2.87185955      0.23337376     -6.28458386
  H        2.50446903     -0.69296596     -6.74357991
  H        2.71460070      1.03119184     -7.01931662
  C       -1.73215552      1.28128132      3.40991947
  H       -0.71670017      1.53303814      3.73295998
  H       -2.25058022      2.24379526      3.29401702
  C        4.36285105      0.07879924     -6.01456072
  H        4.76128573      1.03953284     -5.64853619
  C       -2.79974510      1.10795286      1.11438280
  H       -2.57274694      2.13368075      0.79810636
  H       -3.75766598      1.13356669      1.64286269
  H       -2.94006098      0.50428534      0.21411513
  C       -2.39443629      0.48773494      4.55406550
  H       -1.85058675     -0.45795427      4.68142001
  H       -2.24782015      1.05142131      5.48444522
  C       -3.89298835      0.20270761      4.36502647
  H       -4.03730110     -0.39496895      3.45512268
  H       -4.41270890      1.15607348      4.18988668
  C       -4.60246953     -0.52772869      5.53054886
  H       -5.64925597     -0.64991454      5.21501173
  C       -4.61816673      0.29626123      6.82888957
  H       -5.02500820      1.30018779      6.65946655
  H       -5.23761793     -0.19059539      7.59079896
  H       -3.61274836      0.40933066      7.25037653
  C       -4.03907265     -1.93714764      5.77761119
  H       -4.03325098     -2.53184426      4.85648811
  H       -4.64360472     -2.47406509      6.51752313
  H       -3.01219686     -1.90136755      6.15920630



