%Mem=256MB 
%NProc=12 

#P HF/6-31G* SCF(Conver=6) NoSymm Test 
   Pop=chelpg IOp(6/33=2) GFInput GFPrint 

MEP - Input generated by R.E.D.-III.x MOLECULE 

0 1 
  O       -3.72849920     -3.61513628     -4.12465813
  H       -3.87991222     -4.45571588     -3.67250002
  C        1.60019264      2.06308750      0.00000000
  C        1.32676722      0.60785370      0.47338573
  H        2.11721741      0.00000000      0.00000000
  C        0.00000000      0.00000000      0.00000000
  H       -0.83400600      0.57933896      0.42102119
  C       -0.07730923      0.04783371     -1.54860663
  H        0.70160502     -0.64755968     -1.90311254
  C        2.98357337      2.31515710      0.69420368
  H        3.71362257      1.72177017      0.12399750
  C        1.59978513      2.02729604     -1.54201102
  H        2.44682628      1.41249638     -1.87963039
  H        1.74863857      3.02372615     -1.97060879
  C       -1.43277763     -0.51383348     -2.10545500
  C        1.64044369      0.62877422      1.97762403
  H        1.91036914     -0.36012365      2.36149199
  H        0.76670206      0.96206371      2.55142353
  C        0.28583330      1.44496573     -2.10340355
  H       -0.52506461      2.15044459     -1.89327784
  H        0.36710617      1.39821907     -3.19529585
  C        2.80868564      1.64679653      2.09802601
  H        2.58360520      2.40659484      2.85568381
  H        3.73539599      1.16003126      2.41824901
  C       -0.14382149     -1.45160448      0.48507147
  H       -0.35955836     -1.47002148      1.56166269
  H        0.82116936     -1.97353018      0.37288288
  C        3.53792340      3.75820358      0.79078334
  H        2.81049782      4.35009756      1.36538971
  C        0.54594237      3.06598867      0.52178608
  H        0.74064454      4.06937908      0.12813266
  H       -0.46957495      2.79468618      0.22321850
  H        0.55242842      3.13800551      1.61368050
  C       -1.80234358     -1.81725921     -1.38338651
  C       -1.25290578     -0.83397655     -3.62228416
  H       -0.31842045     -1.39920663     -3.74446607
  H       -1.12573127      0.10052928     -4.17948187
  C       -1.20664463     -2.21750745     -0.25037181
  H       -1.50742335     -3.16990883      0.18772328
  C       -2.59149897      0.50304474     -1.92437353
  H       -2.45988541      1.37853034     -2.56800893
  H       -3.55759769      0.06022068     -2.17884744
  H       -2.65739549      0.84628594     -0.88727005
  C       -2.89412157     -2.65899138     -2.01752129
  H       -2.99950230     -3.59997562     -1.46225934
  H       -3.86516443     -2.14717848     -1.95921552
  C       -2.39706021     -1.64028952     -4.25393326
  H       -3.33387662     -1.06922636     -4.25047013
  H       -2.16673360     -1.85869884     -5.30289329
  C        4.85950432      3.82693071      1.60235616
  H        5.13176653      4.88753720      1.70191613
  H        4.67835679      3.47048145      2.62416926
  C       -2.62538167     -2.94506133     -3.50209269
  H       -1.72104219     -3.57001890     -3.58790843
  C        3.71090080      4.44911306     -0.57494232
  H        4.28919901      3.83490901     -1.27420696
  H        4.23824304      5.40323908     -0.45710649
  H        2.74984471      4.66656793     -1.04767272
  C        6.06516391      3.06767180      1.02325152
  H        5.82675999      1.99970684      0.94718315
  H        6.26305897      3.41435374      0.00183252
  C        7.32622537      3.25265283      1.88353765
  H        7.10318196      2.92416743      2.90914230
  H        7.54877900      4.32736593      1.95288077
  C        8.60360616      2.52227345      1.40753595
  H        9.38606366      2.77736415      2.13760550
  C        9.09069714      3.01360875      0.03422892
  H        9.20719925      4.10369241      0.01860845
  H       10.06128064      2.57057446     -0.21665182
  H        8.39114617      2.74067992     -0.76429128
  C        8.45320370      0.99195808      1.42497630
  H        8.11447640      0.63540004      2.40492571
  H        9.40938679      0.50369942      1.20455394
  H        7.73099500      0.64770162      0.67569134



