%Mem=256MB 
%NProc=12 

#P HF/6-31G* SCF(Conver=6) NoSymm Test 
   Pop=chelpg IOp(6/33=2) GFInput GFPrint 

MEP - Input generated by R.E.D.-III.x MOLECULE 

0 1 
  O        0.44657837     -3.37902550      7.25918717
  H        0.28238450     -4.32030236      7.11432158
  C        1.50624092      1.50161844     -0.00000000
  C        1.10374579      0.00000000     -0.00000000
  H        0.00000000      0.00000000      0.00000000
  C        1.51646587     -0.79225320      1.24730565
  H        2.61343093     -0.81160823      1.31639914
  C        0.93796349     -0.11511790      2.51739724
  H       -0.15499447     -0.24309178      2.44664721
  C        0.95289861      1.92635513     -1.40480979
  H       -0.14186718      1.94977942     -1.29629930
  C        0.82570240      2.13506070      1.23094292
  H       -0.26431797      2.09007498      1.09215024
  H        1.08257788      3.19405045      1.33606997
  C        1.36598553     -0.84398268      3.83951187
  C        1.53652897     -0.51347127     -1.38241499
  H        0.95883837     -1.38641219     -1.70238128
  H        2.58994458     -0.81985604     -1.37014188
  C        1.20819001      1.40735474      2.53663927
  H        2.26753556      1.59458179      2.74145992
  H        0.65681671      1.86886074      3.36367359
  C        1.32184642      0.70990900     -2.31677313
  H        2.23352612      0.92552351     -2.88628449
  H        0.53711050      0.52046427     -3.05580712
  C        1.02523730     -2.24646631      1.16249682
  H        1.62801048     -2.80660099      0.43528127
  H       -0.00265188     -2.26410252      0.76331748
  C        1.38421486      3.28127956     -2.01845094
  H        2.47775676      3.24883670     -2.13509985
  C        3.03751765      1.70589951      0.05918567
  H        3.28288094      2.77220996      0.10831585
  H        3.48660029      1.23212585      0.93552610
  H        3.54105835      1.29641873     -0.82180771
  C        1.21858169     -2.36353585      3.67735437
  C        0.41809860     -0.38418517      4.99077681
  H       -0.61696216     -0.44289890      4.62614679
  H        0.60729566      0.67024952      5.21957659
  C        1.05216967     -2.95683997      2.48608337
  H        0.92872049     -4.04005192      2.45647797
  C        2.83632698     -0.52306104      4.22006069
  H        2.95225238      0.52247061      4.52252272
  H        3.17800139     -1.13851146      5.05597420
  H        3.51244480     -0.71470624      3.38111329
  C        1.26877118     -3.19049141      4.94862499
  H        1.06032430     -4.24139469      4.70984048
  H        2.27330076     -3.16082862      5.39397798
  C        0.52684755     -1.20324746      6.28516290
  H        1.51639453     -1.08888654      6.74511205
  H       -0.20343966     -0.84311362      7.01868309
  C        0.84540868      3.46946064     -3.46675658
  H        1.22109197      4.43174354     -3.83903041
  H        1.32423534      2.71173131     -4.09838137
  C        0.28866267     -2.68338122      6.01638151
  H       -0.74207752     -2.81861435      5.64888348
  C        1.07422394      4.49359567     -1.11920489
  H        0.03984680      4.49034198     -0.76130600
  H        1.23525077      5.43019004     -1.66466708
  H        1.72293951      4.51761095     -0.23943747
  C       -0.67510445      3.37644096     -3.72883909
  H       -0.80913924      3.21588914     -4.80639682
  H       -1.07174737      2.46930569     -3.25573040
  C       -1.56445445      4.56277585     -3.30369562
  H       -1.54507055      4.67103463     -2.21311058
  H       -2.60446470      4.30801087     -3.55828555
  C       -1.24577371      5.93447225     -3.93581838
  H       -0.21306206      6.20506513     -3.67403138
  C       -2.16634610      7.01500086     -3.34564088
  H       -2.07305006      7.06743226     -2.25481344
  H       -1.92887737      8.00533772     -3.75074001
  H       -3.21767424      6.80354112     -3.57988690
  C       -1.35161025      5.91597226     -5.46915926
  H       -0.64237341      5.21737884     -5.92453405
  H       -1.14943417      6.90888311     -5.88677578
  H       -2.36071177      5.62174789     -5.78630997



