%Mem=256MB 
%NProc=12 

#P HF/6-31G* SCF(Conver=6) NoSymm Test 
   Pop=chelpg IOp(6/33=2) GFInput GFPrint 

MEP - Input generated by R.E.D.-III.x MOLECULE 

0 1 
  O        0.42732878     -3.38155902      7.25519860
  H        0.26530095     -4.32307217      7.10941275
  C        1.50629086      1.50151502      0.00000000
  C        1.10379493     -0.00000000      0.00000000
  H        0.00000000      0.00000000      0.00000000
  C        1.51619876     -0.79227270      1.24745801
  H        2.61306080     -0.81022792      1.31831547
  C        0.93500572     -0.11520756      2.51644064
  H       -0.15790321     -0.24173038      2.44251701
  C        0.95128517      1.92801587     -1.40331343
  H       -0.14277936      1.96000646     -1.29275033
  C        0.82601948      2.13512746      1.23080308
  H       -0.26395649      2.09093749      1.09157334
  H        1.08338436      3.19405020      1.33591201
  C        1.35790453     -0.84456527      3.83996759
  C        1.53556717     -0.51238179     -1.38292970
  H        0.96283478     -1.38938659     -1.70065969
  H        2.59110619     -0.81147103     -1.37378419
  C        1.20721335      1.40707098      2.53658073
  H        2.26684760      1.59254218      2.74201173
  H        0.65608875      1.86899307      3.36353969
  C        1.30955381      0.70914678     -2.31699477
  H        2.21301239      0.92316759     -2.90014395
  H        0.51420189      0.51697225     -3.04392109
  C        1.02686738     -2.24700063      1.16141520
  H        1.63236250     -2.80637068      0.43586539
  H        0.00014231     -2.26597283      0.75932005
  C        1.39165167      3.27884909     -2.02016597
  H        2.48371534      3.24012405     -2.14518608
  C        3.03740664      1.70597664      0.05797830
  H        3.28249078      2.77219826      0.10950145
  H        3.48738571      1.22987399      0.93254039
  H        3.53981216      1.29904761     -0.82488625
  C        1.21283553     -2.36429731      3.67682088
  C        0.40391209     -0.38656155      4.98699944
  H       -0.62941044     -0.44743418      4.61786058
  H        0.59002440      0.66825691      5.21659143
  C        1.05075024     -2.95756106      2.48496595
  H        0.92857515     -4.04089989      2.45478329
  C        2.82598325     -0.52233763      4.22773287
  H        2.93915835      0.52283836      4.53238504
  H        3.16457141     -1.13867455      5.06422575
  H        3.50621436     -0.71186417      3.39163385
  C        1.25912860     -3.19133305      4.94822826
  H        1.05329005     -4.24253625      4.70847233
  H        2.26168889     -3.16020092      5.39786746
  C        0.50839230     -1.20541588      6.28184899
  H        1.49570505     -1.08956705      6.74610169
  H       -0.22567798     -0.84650591      7.01218520
  C        0.81987696      3.48622630     -3.44953808
  H        1.24991216      4.41830253     -3.84449363
  H        1.19125780      2.68808274     -4.10212740
  C        0.27368160     -2.68592355      6.01186032
  H       -0.75523508     -2.82270569      5.63985744
  C        1.07885110      4.49849465     -1.13281118
  H        0.03148820      4.51583050     -0.81177965
  H        1.27421177      5.42913209     -1.67876108
  H        1.69687390      4.51604849     -0.23168776
  C       -0.71151348      3.57256121     -3.56719832
  H       -1.16666630      2.61730370     -3.27753241
  H       -1.09084596      4.31295054     -2.85188367
  C       -1.20975216      3.98197899     -4.96655400
  H       -0.78235821      4.96495021     -5.21235013
  H       -2.29931061      4.12847764     -4.92282947
  C       -0.90338564      3.01392397     -6.12928463
  H        0.18455542      2.86308202     -6.17636413
  C       -1.33932301      3.63621301     -7.46560270
  H       -0.84478756      4.59903311     -7.63819580
  H       -1.09779538      2.97902555     -8.30883616
  H       -2.42288075      3.81122967     -7.48048963
  C       -1.56293172      1.63912221     -5.93636289
  H       -1.21540563      1.13779759     -5.02730007
  H       -1.34303661      0.97704113     -6.78161787
  H       -2.65415464      1.73765894     -5.86661245



