%Mem=256MB 
%NProc=12 

#P HF/6-31G* SCF(Conver=6) NoSymm Test 
   Pop=chelpg IOp(6/33=2) GFInput GFPrint 

MEP - Input generated by R.E.D.-III.x MOLECULE 

0 1 
  O        0.45118004     -3.39038791      7.25450573
  H        0.28550937     -4.33117602      7.10815905
  C        1.50810189      1.50116251      0.00000000
  C        1.10391656     -0.00000000      0.00000000
  H        0.00000000      0.00000000      0.00000000
  C        1.51783555     -0.79471524      1.24571123
  H        2.61483686     -0.81543348      1.31325438
  C        0.94278788     -0.11900045      2.51786513
  H       -0.15063415     -0.24385226      2.44871604
  C        0.95234578      1.93482104     -1.40171201
  H       -0.14229244      1.99272394     -1.29071971
  C        0.83248564      2.13265021      1.23517130
  H       -0.25792587      2.08881768      1.09907050
  H        1.08941456      3.19116403      1.34266142
  C        1.37115977     -0.85068123      3.83833525
  C        1.53619416     -0.50953381     -1.38253917
  H        0.97799307     -1.39751156     -1.69556995
  H        2.59710719     -0.78887752     -1.37810237
  C        1.21758782      1.40247403      2.53842392
  H        2.27832605      1.58621011      2.73976417
  H        0.67048433      1.86470765      3.36788225
  C        1.28018820      0.70457387     -2.31695728
  H        2.16005681      0.91337260     -2.93726428
  H        0.45712428      0.50110586     -3.00845099
  C        1.02536268     -2.24844811      1.15923145
  H        1.62730551     -2.80804004      0.43090078
  H       -0.00279734     -2.26497331      0.76068887
  C        1.40916333      3.27959256     -2.02473157
  H        2.49295615      3.21337056     -2.20552546
  C        3.04069458      1.69973655      0.05301917
  H        3.29130486      2.76415352      0.10926267
  H        3.49209833      1.21617365      0.92273350
  H        3.53747683      1.29594633     -0.83444029
  C        1.22178895     -2.36976349      3.67382150
  C        0.42459735     -0.39174538      4.99112935
  H       -0.61083299     -0.44890792      4.62735389
  H        0.61512966      0.66209376      5.22149325
  C        1.05286298     -2.96080834      2.48177492
  H        0.92787715     -4.04380680      2.45057208
  C        2.84203046     -0.53157414      4.21819615
  H        2.95880068      0.51342361      4.52210959
  H        3.18395347     -1.14852672      5.05288469
  H        3.51736429     -0.72240967      3.37841760
  C        1.27205031     -3.19893299      4.94370654
  H        1.06220980     -4.24920431      4.70335278
  H        2.27690112     -3.17118348      5.38838743
  C        0.53355111     -1.21304037      6.28407887
  H        1.52359186     -1.10068144      6.74336417
  H       -0.19568267     -0.85327200      7.01882681
  C        0.72860043      3.49964048     -3.40061685
  H        0.72427310      2.55758250     -3.95717306
  H       -0.32860129      3.75828207     -3.23275470
  C        0.29330922     -2.69241974      6.01299007
  H       -0.73782506     -2.82573372      5.64594848
  C        1.15093952      4.48903762     -1.10809649
  H        0.09876007      4.52677402     -0.79945741
  H        1.37897599      5.42986051     -1.61815735
  H        1.76266605      4.46183983     -0.20355872
  C        1.38293722      4.57829172     -4.27967433
  H        1.44809974      5.52272303     -3.72611391
  H        2.42035879      4.28596593     -4.49214779
  C        0.63711583      4.86519961     -5.59643774
  H        1.13107248      5.70859022     -6.10157078
  H       -0.37767465      5.21181290     -5.35281303
  C        0.52454271      3.70240383     -6.60552442
  H        0.01168213      2.86461934     -6.11184484
  C        1.89813472      3.20164716     -7.07936489
  H        2.50608420      2.81851382     -6.25336229
  H        1.78883710      2.39249971     -7.81045079
  H        2.46228624      4.01081778     -7.56132510
  C       -0.33798201      4.12518584     -7.80563056
  H       -1.33518268      4.44951594     -7.48647780
  H       -0.46478270      3.29987689     -8.51559329
  H        0.12637148      4.96014004     -8.34612190



