%Mem=256MB 
%NProc=12 

#P HF/6-31G* SCF(Conver=6) NoSymm Test 
   Pop=chelpg IOp(6/33=2) GFInput GFPrint 

MEP - Input generated by R.E.D.-III.x MOLECULE 

0 1 
  O        4.21265401      6.55601490      4.11845981
  H        4.99185442      6.90577885      3.66629276
  C        0.00000000      0.00000000      0.00000000
  C        1.34568303      0.61940110     -0.47242435
  H        2.12778703      0.00000000     -0.00000000
  C        1.61322709      2.05457436      0.00000000
  H        0.84887223      2.72255113     -0.42188679
  C        1.54763072      2.12061638      1.54809834
  H        2.41092083      1.53441266      1.90448845
  C        0.08876141     -1.40533340     -0.69205161
  H        0.82711561     -1.98296183     -0.11309532
  C        0.03563223      0.01285725      1.54268044
  H        0.83888122     -0.65806584      1.88036468
  H       -0.89287923     -0.37356640      1.97464517
  C        1.76254181      3.57287401      2.10236381
  C        1.40018087      0.31100199     -1.97569839
  H        2.42315178      0.30466322     -2.36505488
  H        0.84977819      1.06887799     -2.54698337
  C        0.27997770      1.42990399      2.10182310
  H       -0.60123208      2.04451620      1.88910952
  H        0.34306213      1.36404761      3.19394178
  C        0.71931077     -1.08038350     -2.08996009
  H       -0.05616195     -1.07286794     -2.86521329
  H        1.43935478     -1.85033076     -2.38271494
  C        2.98638248      2.54612241     -0.48585980
  H        2.95166893      2.75868662     -1.56267748
  H        3.72722711      1.73704648     -0.37289934
  C       -1.18029924     -2.29071526     -0.80484777
  H       -1.90265253     -1.75203504     -1.43418184
  C       -1.22699253      0.77979750     -0.52617852
  H       -2.15484730      0.35229741     -0.13191296
  H       -1.20722982      1.83236836     -0.23322700
  H       -1.29412047      0.75002883     -1.61798966
  C        2.93783532      4.24665307      1.38010338
  C        2.11483388      3.47929268      3.61979997
  H        2.88970236      2.71006779      3.74461471
  H        1.23841233      3.13043606      4.17673914
  C        3.47113803      3.76412058      0.24803866
  H        4.32235246      4.28627923     -0.19044422
  C        0.49471305      4.44937952      1.91799219
  H       -0.32346388      4.10982906      2.56092271
  H        0.68893473      5.49453998      2.17127387
  H        0.14734696      4.42831088      0.88037053
  C        3.48920783      5.51106924      2.01249726
  H        4.37712761      5.84039548      1.45749542
  H        2.75736121      6.32898791      1.95194541
  C        2.61884793      4.78620793      4.24918588
  H        1.83772100      5.55663677      4.24303081
  H        2.88523582      4.61802567      5.29886367
  C       -0.82738125     -3.62125827     -1.51850784
  H       -0.31312716     -3.39858052     -2.46070072
  H       -0.09798774     -4.15897015     -0.89424411
  C        3.83030235      5.32233523      3.49772608
  H        4.65552149      4.59636371      3.58572834
  C       -1.84917952     -2.57221345      0.55132768
  H       -1.14424312     -3.04462618      1.24721726
  H       -2.70388407     -3.24626231      0.43978393
  H       -2.22325652     -1.66121429      1.02322265
  C       -1.99386072     -4.57716581     -1.83970461
  H       -1.55905532     -5.48256846     -2.28171107
  H       -2.48175294     -4.90367828     -0.91391769
  C       -3.03726628     -3.99031915     -2.80477695
  H       -2.51469996     -3.59835989     -3.68993909
  H       -3.52310884     -3.12559803     -2.33328383
  C       -4.14680936     -4.95595076     -3.28536195
  H       -4.79798066     -4.36196368     -3.94373505
  C       -5.02245933     -5.47234114     -2.13148182
  H       -5.42338708     -4.64539641     -1.53350334
  H       -5.87199777     -6.04910123     -2.51467987
  H       -4.45862740     -6.12915005     -1.45909434
  C       -3.59970284     -6.12068419     -4.12734109
  H       -2.98136582     -5.75738683     -4.95665906
  H       -4.41913596     -6.70953084     -4.55518568
  H       -2.98718380     -6.80338673     -3.52727885



