%Mem=256MB 
%NProc=12 

#P HF/6-31G* SCF(Conver=6) NoSymm Test 
   Pop=chelpg IOp(6/33=2) GFInput GFPrint 

MEP - Input generated by R.E.D.-III.x MOLECULE 

0 1 
  O        4.20528956      6.55517643      4.12442783
  H        4.98713997      6.90271878      3.67513117
  C        0.00000000      0.00000000      0.00000000
  C        1.34555457      0.61930991     -0.47202098
  H        2.12801123      0.00000000      0.00000000
  C        1.61278969      2.05455867      0.00000000
  H        0.85012596      2.72251441     -0.42486022
  C        1.54255399      2.12236234      1.54806824
  H        2.40450164      1.53615245      1.90770183
  C        0.09049801     -1.40681024     -0.68798852
  H        0.82580354     -1.98472420     -0.10536597
  C        0.03082797      0.01514465      1.54238941
  H        0.83383896     -0.65431098      1.88359974
  H       -0.89895203     -0.37170772      1.97133566
  C        1.75706410      3.57507754      2.10127681
  C        1.39781060      0.31058777     -1.97552730
  H        2.41940877      0.31051254     -2.36851421
  H        0.84050153      1.06457890     -2.54516175
  C        0.27294898      1.43330922      2.09956618
  H       -0.60744818      2.04766286      1.88280700
  H        0.33284860      1.36978433      3.19195195
  C        0.72623711     -1.08572564     -2.08569130
  H       -0.04358577     -1.09134541     -2.86638314
  H        1.45670410     -1.84906874     -2.36945636
  C        2.98784138      2.54468654     -0.48216562
  H        2.95626405      2.75740713     -1.55905521
  H        3.72740724      1.73471480     -0.36735612
  C       -1.18016444     -2.28752070     -0.80686374
  H       -1.89288045     -1.74697612     -1.44721034
  C       -1.22560658      0.77927489     -0.53093653
  H       -2.15485578      0.35596132     -0.13587537
  H       -1.20415859      1.83307016     -0.24259791
  H       -1.29194241      0.74516595     -1.62262377
  C        2.93640806      4.24607892      1.38306994
  C        2.10213341      3.48295156      3.62050032
  H        2.87413026      2.71164410      3.75022742
  H        1.22212246      3.13759548      4.17392058
  C        3.47246746      3.76206254      0.25295851
  H        4.32613009      4.28236684     -0.18293844
  C        0.49155019      4.45347850      1.91016764
  H       -0.33012873      4.11603649      2.54973023
  H        0.68662301      5.49854179      2.16328065
  H        0.14881427      4.43208336      0.87102101
  C        3.48785191      5.50983428      2.01664997
  H        4.37860528      5.83694929      1.46489574
  H        2.75779798      6.32912276      1.95256726
  C        2.60683512      4.78933602      4.25041698
  H        1.82772045      5.56176000      4.24028050
  H        2.86846759      4.62164452      5.30136969
  C       -0.85371537     -3.64022216     -1.51215709
  H        0.13283284     -3.58416890     -1.98339191
  H       -0.76649488     -4.42867174     -0.75235671
  C        3.82263887      5.32175148      3.50338397
  H        4.64586199      4.59402238      3.59548388
  C       -1.86769053     -2.54911529      0.54593441
  H       -1.15923362     -2.97463381      1.26752087
  H       -2.68890068     -3.26321879      0.43459294
  H       -2.28608436     -1.64029899      0.98548587
  C       -1.84861945     -4.07291145     -2.60939643
  H       -1.90799787     -3.26524632     -3.35216817
  H       -1.42341758     -4.93214678     -3.14391077
  C       -3.28225198     -4.41494648     -2.16225180
  H       -3.89607658     -4.56595737     -3.06270489
  H       -3.71908389     -3.54689450     -1.65036425
  C       -3.44755071     -5.65792164     -1.26120222
  H       -2.81024226     -5.53173460     -0.37435899
  C       -3.01581276     -6.95468905     -1.96518175
  H       -1.96110311     -6.93595030     -2.25750006
  H       -3.15973920     -7.82130100     -1.30993312
  H       -3.61131691     -7.12162895     -2.87226886
  C       -4.90104574     -5.77059031     -0.77354226
  H       -5.21110588     -4.87228875     -0.22722290
  H       -5.03250165     -6.63058529     -0.10697805
  H       -5.58805851     -5.89814063     -1.62004127



