%Mem=256MB 
%NProc=12 

#P HF/6-31G* SCF(Conver=6) NoSymm Test 
   Pop=chelpg IOp(6/33=2) GFInput GFPrint 

MEP - Input generated by R.E.D.-III.x MOLECULE 

0 1 
  O        5.00575960     -0.24152421     -7.25060235
  H        5.95675810     -0.33021565     -7.10334897
  C        0.00000000      0.00000000      0.00000000
  C        1.55484634     -0.00000000      0.00000000
  H        1.84149206      1.06601215      0.00000000
  C        2.21443419     -0.60594683     -1.24575779
  H        1.94679193     -1.66989504     -1.31471445
  C        1.71365927      0.12813020     -2.51693525
  H        2.11939751      1.15093319     -2.44499428
  C       -0.27286044      0.64798569      1.40282417
  H       -0.04072500      1.71940121      1.29270160
  C       -0.43270051      0.81888508     -1.23422619
  H       -0.10708007      1.86012990     -1.09586169
  H       -1.52141994      0.84648464     -1.34342991
  C        2.30964608     -0.47278124     -3.83839876
  C        1.93598233     -0.54970538      1.38221610
  H        2.93733509     -0.23788724      1.69553392
  H        1.93432617     -1.64679360      1.37684933
  C        0.17326961      0.25948852     -2.53828439
  H       -0.28011319     -0.71648548     -2.74177959
  H       -0.13008862      0.90967865     -3.36667638
  C        0.82784308      0.00751084      2.31704411
  H        0.39595674     -0.79232686      2.93051515
  H        1.23428862      0.74527009      3.01527773
  C        3.74629166     -0.51138058     -1.15784089
  H        4.12823063     -1.23989539     -0.43030597
  H        4.03091878      0.47599143     -0.75748763
  C       -1.68904679      0.56140167      2.02937107
  H       -1.91290768     -0.50159916      2.20802656
  C       -0.59130094     -1.42753699     -0.05445556
  H       -1.68451662     -1.39164543     -0.10530215
  H       -0.24656348     -1.98736626     -0.92732347
  H       -0.32685387     -2.01460167      0.83033888
  C        3.81447764     -0.72740799     -3.67273951
  C        2.11679500      0.56496507     -4.98796416
  H        2.44328953      1.54780171     -4.62034565
  H        1.05019580      0.65859695     -5.21941894
  C        4.42789518     -0.72217554     -2.48006437
  H        5.50572308     -0.88568978     -2.44809721
  C        1.61711008     -1.80748284     -4.22388407
  H        0.57827198     -1.64591743     -4.52848266
  H        2.12398724     -2.29596924     -5.05976552
  H        1.62373920     -2.51223761     -3.38661350
  C        4.60272862     -0.99004401     -4.94247002
  H        5.67094469     -1.06429572     -4.70106535
  H        4.31242711     -1.95093416     -5.39043661
  C        2.88236915      0.24867567     -6.28104979
  H        2.51436570     -0.67536273     -6.74415420
  H        2.72777962      1.04943663     -7.01314286
  C       -1.70765923      1.26770190      3.40828798
  H       -0.86062576      0.91304644      4.00730672
  H       -1.53869463      2.34270790      3.24940465
  C        4.37254561      0.09065990     -6.00877136
  H        4.77199490      1.04935106     -5.63847031
  C       -2.79240228      1.13190479      1.12108557
  H       -2.57830641      2.17387259      0.85119278
  H       -3.76570495      1.11182061      1.62021133
  H       -2.89890885      0.56365810      0.19463905
  C       -2.98619066      1.05271030      4.23637128
  H       -3.84366897      1.53605347      3.75444696
  H       -3.21723258     -0.02199547      4.25118967
  C       -2.87910001      1.53469401      5.69507681
  H       -2.06445176      0.98306964      6.18636727
  H       -3.79991800      1.25283221      6.22712673
  C       -2.64237429      3.04485715      5.91014589
  H       -1.71364751      3.32449851      5.39237592
  C       -2.44355879      3.34288126      7.40494628
  H       -1.61006275      2.76474303      7.82029966
  H       -2.23283993      4.40494436      7.57489824
  H       -3.34420667      3.08697407      7.97787632
  C       -3.77953186      3.90478718      5.33602374
  H       -3.89204547      3.77324078      4.25496018
  H       -3.59621468      4.96943969      5.52058279
  H       -4.73789170      3.64664920      5.80531799



