%Mem=256MB 
%NProc=12 

#P HF/6-31G* SCF(Conver=6) NoSymm Test 
   Pop=chelpg IOp(6/33=2) GFInput GFPrint 

MEP - Input generated by R.E.D.-III.x MOLECULE 

0 1 
  O       -3.73485295     -3.60936135     -4.12442783
  H       -3.88178131     -4.45226573     -3.67513117
  C        1.60056068      2.06409966      0.00000000
  C        1.32714139      0.60831679      0.47202098
  H        2.11817482      0.00000000     -0.00000000
  C        0.00000000      0.00000000      0.00000000
  H       -0.83340385      0.57728577      0.42486022
  C       -0.08285132      0.05163381     -1.54806824
  H        0.69541146     -0.64183777     -1.90770183
  C        2.98713211      2.31850995      0.68798852
  H        3.72654388      1.74585909      0.10536597
  C        1.59336942      2.03051380     -1.54238941
  H        2.43804212      1.41445736     -1.88359974
  H        1.74244504      3.02646664     -1.97133566
  C       -1.43975932     -0.50978999     -2.10127681
  C        1.63930222      0.63272328      1.97552730
  H        1.88786713     -0.35817444      2.36851421
  H        0.77239706      0.98989480      2.54516175
  C        0.27669040      1.45071238     -2.09956618
  H       -0.53335851      2.15523374     -1.88280700
  H        0.35287731      1.40806346     -3.19195195
  C        2.83032699      1.62376419      2.08569130
  H        2.64852746      2.37183356      2.86638314
  H        3.74842189      1.10091005      2.36945636
  C       -0.14094220     -1.45297205      0.48216562
  H       -0.35495487     -1.47408493      1.55905521
  H        0.82459413     -1.97330991      0.36735612
  C        3.53231783      3.76523264      0.80686374
  H        2.83464774      4.32506208      1.44721034
  C        0.54657549      3.06334741      0.53093653
  H        0.73114635      4.06765416      0.13587537
  H       -0.47035368      2.78622005      0.24259791
  H        0.56352459      3.13598755      1.62262377
  C       -1.80374641     -1.81692749     -1.38306994
  C       -1.26646608     -0.82208709     -3.62050032
  H       -0.33054436     -1.38328657     -3.75022742
  H       -1.14553474      0.11549794     -4.17392058
  C       -1.20387647     -2.21915577     -0.25295851
  H       -1.50091066     -3.17373796      0.18293844
  C       -2.59960049      0.50405525     -1.91016764
  H       -2.47215693      1.38313516     -2.54973023
  H       -3.56582768      0.06064158     -2.16328065
  H       -2.66221447      0.84170174     -0.87102101
  C       -2.89541446     -2.65920345     -2.01664997
  H       -2.99603961     -3.60277135     -1.46489574
  H       -3.86767404     -2.15035803     -1.95256726
  C       -2.41085243     -1.62939378     -4.25041698
  H       -3.34958847     -1.06156184     -4.24028050
  H       -2.18455821     -1.84237950     -5.30136969
  C        4.92379792      3.77761696      1.51215709
  H        5.10939459      2.80706391      1.98339191
  H        5.70978300      3.88479725      0.75235671
  C       -2.63154738     -2.93818662     -3.50338397
  H       -1.72543501     -3.55967380     -3.59548388
  C        3.61882304      4.49573978     -0.54593441
  H        4.20388571      3.91206276     -1.26752087
  H        4.11172965      5.46598356     -0.43459294
  H        2.63553219      4.68050874     -0.98548587
  C        5.10149313      4.84788728      2.60939643
  H        4.30364187      4.70902716      3.35216817
  H        6.03834807      4.64445477      3.14391077
  C        5.08454111      6.32165892      2.16225180
  H        5.08171088      6.95377988      3.06270489
  H        4.13630543      6.53422763      1.65036425
  C        6.24997841      6.78433249      1.26120222
  H        6.28259911      6.13547109      0.37435899
  C        7.61281465      6.68098482      1.96518175
  H        7.85118462      5.65339378      2.25750006
  H        8.41839079      7.03138199      1.30993312
  H        7.62989126      7.29921011      2.87226886
  C        6.00571737      8.22157936      0.77354226
  H        5.05897639      8.30382585      0.22722290
  H        6.80790858      8.55827104      0.10697805
  H        5.96232900      8.91898389      1.62004127



