%Mem=256MB 
%NProc=12 

#P HF/6-31G* SCF(Conver=6) NoSymm Test 
   Pop=mk IOp(6/33=2) GFInput GFPrint 

MEP - Input generated by R.E.D.-III.x MOLECULE 

0 1 
  O        6.12004862      3.72534303      0.00000000
  H        5.85222222      3.73846374     -0.92973606
  O        0.00000000      0.00000000      0.00000000
  H       -0.11205470     -0.16364650     -0.94700926
  C        8.82907479      0.07476183      0.41153358
  C        7.90323541      1.26702015      0.79210195
  H        7.68273205      1.12391609      1.86439880
  C        6.53115875      1.28481831      0.09462502
  H        6.67032682      1.40215923     -0.99019996
  C        5.78600353     -0.04931320      0.37793037
  H        5.57618997     -0.04800480      1.46029258
  C       10.08434534      0.40930084      1.29164703
  H        9.80544352      0.15202731      2.32608211
  C        8.06548663     -1.21282938      0.78048477
  H        7.93776020     -1.24492921      1.87222894
  H        8.62684818     -2.11178106      0.50757332
  C        4.38471761     -0.13802805     -0.32122742
  C        8.81819892      2.49775794      0.69961354
  H        8.44946388      3.33820370      1.29207211
  H        8.87796053      2.85778019     -0.33296198
  C        6.68413414     -1.27650343      0.10135175
  H        6.82958638     -1.39322865     -0.97808003
  H        6.17534259     -2.18698296      0.43692894
  C       10.19123763      1.96932144      1.19375931
  H       10.99158146      2.25463690      0.50024037
  H       10.45596989      2.40323207      2.16283779
  C        5.67839158      2.47719366      0.57039006
  H        5.83870864      2.62151737      1.64832087
  C       11.43467650     -0.29900929      1.00680016
  H       11.76480716     -0.00000000      0.00000000
  C        9.20692503      0.07909101     -1.08758566
  H        8.32880119      0.05800265     -1.73832051
  H        9.78817017      0.96516736     -1.35920746
  H        9.81376520     -0.79759156     -1.33688143
  C        3.61704340      1.17262498     -0.11726386
  C        3.56736954     -1.28967580      0.34370332
  H        3.65156663     -1.18501533      1.43421155
  H        4.02101270     -2.25319493      0.08850058
  C        4.20907312      2.29784523      0.30922635
  H        3.60902402      3.19377035      0.46839424
  C        4.51694806     -0.40855025     -1.84397335
  H        4.90089167     -1.41471860     -2.03833880
  H        3.55217264     -0.32837612     -2.35156762
  H        5.19089336      0.31184435     -2.31763160
  C        2.12846602      1.15657907     -0.41013235
  H        1.67666068      2.11298430     -0.12926822
  H        1.96395165      1.03506239     -1.49310654
  C        2.07563898     -1.32294499     -0.02318183
  H        1.94732206     -1.53871517     -1.09432876
  H        1.57447241     -2.13128252      0.52129815
  C       12.51453901      0.19146726      2.00384819
  H       12.49971216      1.28692111      2.04256311
  H       12.23729905     -0.15203987      3.01110449
  C        1.39794280      0.00802170      0.30130024
  H        1.43776816      0.17730644      1.38426838
  C       11.33873065     -1.83463943      1.03776080
  H       10.93930366     -2.18327973      1.99865488
  H       12.32160293     -2.29519169      0.90087180
  H       10.69312708     -2.22456445      0.24786329
  C       13.95310248     -0.24405250      1.67638620
  H       14.05947475     -1.33052304      1.77431600
  H       14.15534651     -0.01719038      0.61987300
  C       15.03074926      0.45493600      2.52592714
  H       14.96088368      1.53911049      2.35593091
  H       16.02146374      0.15315412      2.15461706
  C       14.98860573      0.19776482      4.04744631
  H       14.00568732      0.51648822      4.42306366
  C       16.05149496      1.05040733      4.75877434
  H       17.06071791      0.77412291      4.42701291
  H       16.01029812      0.91348514      5.84542682
  H       15.91336423      2.11745077      4.54963126
  C       15.16770505     -1.28821958      4.39677957
  H       16.12805823     -1.66383198      4.01995554
  H       15.15571921     -1.43901941      5.48226802
  H       14.37556378     -1.91169547      3.96960379



