%Mem=256MB 
%NProc=12 

#P HF/6-31G* SCF(Conver=6) NoSymm Test 
   Pop=mk IOp(6/33=2) GFInput GFPrint 

MEP - Input generated by R.E.D.-III.x MOLECULE 

0 1 
  O        0.00000000      0.00000000      0.00000000
  H       -0.23403002      0.13671345      0.92889413
  O       -3.04918284      6.48329347      0.00000000
  H       -3.05430084      6.68109520      0.94710444
  C        4.27387482      1.55069368     -0.40742537
  C        2.84412886      1.06809175     -0.79028767
  H        2.74006088      1.31177990     -1.86204729
  C        1.68943813      1.80870612     -0.09196759
  H        1.74031924      1.63209907      0.99256734
  C        1.80397997      3.33289160     -0.37272736
  H        1.62950580      3.44931089     -1.45509673
  C        5.13633791      0.58074092     -1.28913607
  H        5.04378268      0.94986728     -2.32318814
  C        4.34753085      3.04681660     -0.77295900
  H        4.26030606      3.14660883     -1.86460718
  H        5.31112613      3.48657328     -0.49764109
  C        0.68350954      4.17885893      0.32648320
  C        2.92750694     -0.46342524     -0.70142427
  H        2.15820888     -0.95911030     -1.29794896
  H        2.77475600     -0.79935055      0.32967925
  C        3.22973986      3.86047041     -0.09342721
  H        3.41406127      3.87515585      0.98628002
  H        3.30830679      4.90124409     -0.42667636
  C        4.36578773     -0.77965743     -1.19141551
  H        4.87399861     -1.45676339     -0.49426023
  H        4.35134445     -1.28988433     -2.15933327
  C        0.32079825      1.28500686     -0.56942868
  H        0.37606037      1.07673799     -1.64740508
  C        6.65459822      0.42669880     -1.00762718
  H        6.76178746     -0.00000000     -0.00000000
  C        4.58587195      1.33589799      1.09141242
  H        3.86469908      1.83660525      1.74278742
  H        4.58197834      0.27575677      1.36142528
  H        5.57549109      1.73234447      1.34147377
  C       -0.67962503      3.50967257      0.11914649
  C        0.63852032      5.59153977     -0.33595333
  H        0.65362372      5.45979496     -1.42668602
  H        1.54772979      6.14453833     -0.07755881
  C       -0.80600108      2.24508668     -0.30913897
  H       -1.80052819      1.82931137     -0.47074772
  C        0.94083225      4.32836716      1.84996621
  H        1.81489541      4.95663829      2.04717374
  H        0.09062468      4.79113074      2.35788406
  H        1.10648301      3.35478860      2.32139002
  C       -1.91296464      4.34393023      0.41017127
  H       -2.81674716      3.79583633      0.12645921
  H       -1.98583723      4.53478276      1.49319361
  C       -0.58823816      6.44142518      0.02961564
  H       -0.57885767      6.68995492      1.10132809
  H       -0.55900673      7.39321293     -0.51286461
  C        7.27180605     -0.57679318     -2.01565841
  H        6.68601694     -1.50183290     -2.00470768
  H        7.15315566     -0.16099675     -3.02748908
  C       -1.88687711      5.70580173     -0.29938691
  H       -1.94423724      5.54415418     -1.38272957
  C        7.42119298      1.76003699     -1.04086404
  H        7.28758590      2.26686913     -2.00506162
  H        8.49448586      1.60470767     -0.89598254
  H        7.09188158      2.44440670     -0.25610734
  C        8.75773332     -0.93878784     -1.81864237
  H        9.04304777     -1.62991345     -2.62205258
  H        9.38190098     -0.04976343     -1.97087890
  C        9.12902642     -1.55777641     -0.45762160
  H        8.93740363     -0.82467826      0.33776607
  H       10.21497430     -1.73367326     -0.44420179
  C        8.42338751     -2.87818249     -0.08220387
  H        7.33806177     -2.70197873     -0.08449607
  C        8.81709508     -3.30421035      1.34136583
  H        9.89503202     -3.50078998      1.40650077
  H        8.29414057     -4.21908634      1.64261412
  H        8.57698816     -2.52410792      2.07307096
  C        8.71779306     -4.00712647     -1.08287797
  H        9.79589481     -4.20725429     -1.13743360
  H        8.22276977     -4.93689246     -0.78030106
  H        8.37250049     -3.76478559     -2.09307727



