%Mem=256MB 
%NProc=12 

#P HF/6-31G* SCF(Conver=6) NoSymm Test 
   Pop=mk IOp(6/33=2) GFInput GFPrint 

MEP - Input generated by R.E.D.-III.x MOLECULE 

0 1 
  O        0.00000000      0.00000000      0.00000000
  H        0.96762582     -0.00000000      0.00000000
  O        1.64534524     -2.74302297      6.41056502
  H        2.58346191     -2.51389915      6.47056108
  C       -1.19836396      4.10342232      1.59991464
  C       -1.28851332      2.60976888      1.17166623
  H       -2.26094206      2.26035162      1.56062725
  C       -0.23915789      1.67868102      1.80529357
  H        0.76656495      1.97885850      1.47615171
  C       -0.32510608      1.77394992      3.35424670
  H       -1.30670133      1.35035815      3.62362205
  C       -2.38582969      4.70135898      0.76764483
  H       -3.30744396      4.38352817      1.28120631
  C       -1.36145278      4.13745022      3.13239757
  H       -2.37515189      3.79455188      3.38564304
  H       -1.26975472      5.15377079      3.52828259
  C        0.73401085      0.88099720      4.08999931
  C       -1.42947634      2.66740994     -0.35737439
  H       -1.87691170      1.76075746     -0.77092323
  H       -0.44722307      2.76463529     -0.83191772
  C       -0.32677898      3.24170207      3.83951422
  H        0.66800479      3.67878743      3.70077894
  H       -0.52153842      3.27186196      4.91729693
  C       -2.29984812      3.93048036     -0.59462587
  H       -1.86120185      4.57014672     -1.36982541
  H       -3.29698192      3.65620437     -0.95214667
  C       -0.44289526      0.21909449      1.35431287
  H       -1.52087631      0.00947359      1.30437927
  C       -2.48824897      6.23606939      0.57285522
  H       -1.60367761      6.55160744      0.00000000
  C        0.13866159      4.75447703      1.17583559
  H        1.00581342      4.21922220      1.57146038
  H        0.24991322      4.78788747      0.08808398
  H        0.20184540      5.78446774      1.54156565
  C        0.77111673     -0.51341331      3.45501407
  C        0.30446539      0.72464539      5.58249471
  H       -0.76483950      0.47314972      5.60734543
  H        0.40884622      1.68688269      6.09474102
  C        0.21323386     -0.78049205      2.26507679
  H        0.24011087     -1.79798039      1.87511107
  C        2.15587053      1.50002783      4.02174535
  H        2.22141249      2.41565896      4.61748214
  H        2.91313535      0.81146427      4.40559046
  H        2.43377042      1.74219909      2.99139595
  C        1.46553541     -1.61283228      4.23649127
  H        1.33549381     -2.57576387      3.73294197
  H        2.54969213     -1.41743153      4.26991898
  C        1.07056287     -0.34994412      6.36949795
  H        2.13178200     -0.07526899      6.46318471
  H        0.67430709     -0.42072975      7.38881929
  C       -3.74631889      6.60533423     -0.27197688
  H       -4.15386015      5.70684448     -0.74640616
  H       -4.53602547      6.96697029      0.40224769
  C        0.96763569     -1.71306947      5.68595342
  H       -0.08099530     -2.03460418      5.68077509
  C       -2.49880940      7.02303687      1.89689366
  H       -3.28604630      6.65072360      2.56424125
  H       -2.69772092      8.08376434      1.71728692
  H       -1.54822228      6.95675278      2.43230147
  C       -3.51647384      7.64475329     -1.38647841
  H       -2.75342080      7.25342064     -2.07225230
  H       -4.44131504      7.72653210     -1.97578384
  C       -3.11914020      9.05107727     -0.91245975
  H       -2.14572780      9.01696491     -0.40225180
  H       -3.84809777      9.38535404     -0.16007161
  C       -3.04916930     10.11712819     -2.02579172
  H       -4.01709326     10.11240917     -2.55074201
  C       -1.95116006      9.81993227     -3.06006713
  H       -0.96461884      9.78466336     -2.57946517
  H       -1.91699680     10.59999501     -3.82914809
  H       -2.10962830      8.86363418     -3.56822364
  C       -2.85200595     11.51626687     -1.42089465
  H       -1.89809117     11.57786582     -0.88132738
  H       -2.84302653     12.28860783     -2.19846965
  H       -3.65142450     11.76223654     -0.71249501



