%Mem=256MB 
%NProc=12 

#P HF/6-31G* SCF(Conver=6) NoSymm Test 
   Pop=mk IOp(6/33=2) GFInput GFPrint 

MEP - Input generated by R.E.D.-III.x MOLECULE 

0 1 
  O        7.13077768      0.87693750     -0.00000000
  H        7.53979504      0.00000000     -0.00000000
  O        8.70370584     -0.15285740     -6.91616049
  H        8.88163483     -1.10386588     -6.92565881
  C        2.67259588      0.09086783     -0.48681460
  C        4.03117885      0.83890959     -0.44504874
  H        3.83098950      1.82132535     -0.90626606
  C        5.13814077      0.20921753     -1.30754713
  H        5.38179704     -0.79287398     -0.92515343
  C        4.64504180      0.09765073     -2.78045011
  H        4.54595944      1.13656900     -3.13588131
  C        1.84180779      1.00254860      0.46939389
  H        1.71287264      1.93519179     -0.09915372
  C        2.19003454      0.08577769     -1.94690193
  H        1.99439535      1.12217701     -2.25801161
  H        1.24118440     -0.45724322     -2.05202032
  C        5.69722787     -0.57260610     -3.73239825
  C        4.26495940      1.10606966      1.05546080
  H        4.92484479      1.96020956      1.22453393
  H        4.75281036      0.24855162      1.53064836
  C        3.23756673     -0.54104111     -2.88749794
  H        3.30030157     -1.61412780     -2.67956813
  H        2.87672014     -0.45504479     -3.91827286
  C        2.83196035      1.32623233      1.63111964
  H        2.66374726      0.67505316      2.49367542
  H        2.69342455      2.35205038      1.98850547
  C        6.43364260      1.04098874     -1.25075371
  H        6.17068717      2.10842666     -1.25483982
  C        0.40155094      0.55988721      0.85885302
  H        0.00000000      0.00000000      0.00000000
  C        2.77716431     -1.35593326      0.04412617
  H        3.46607753     -1.96398347     -0.54793482
  H        3.12803359     -1.39190508      1.07904288
  H        1.79976218     -1.84892685      0.00589089
  C        7.08609024      0.02435413     -3.47786701
  C        5.29967726     -0.26722616     -5.21065741
  H        5.06467439      0.80328003     -5.28898988
  H        4.37934269     -0.80598202     -5.45937804
  C        7.36988374      0.75827767     -2.39189943
  H        8.36559259      1.18676383     -2.27779786
  C        5.76808230     -2.10900650     -3.52170992
  H        4.85274806     -2.60156631     -3.86385177
  H        6.59862867     -2.55282771     -4.07679660
  H        5.91643890     -2.35807105     -2.46654002
  C        8.15451065     -0.23684339     -4.52284848
  H        9.06410928      0.32222402     -4.28248910
  H        8.42851271     -1.30431188     -4.51641666
  C        6.37563923     -0.60217870     -6.25521103
  H        6.55747399     -1.68683650     -6.28609914
  H        6.02934974     -0.31415505     -7.25428904
  C        0.29226650     -0.36353324      2.09741943
  H        1.14351270     -1.04841536      2.13423761
  H        0.35802065      0.24862452      3.00867679
  C        7.68947089      0.11391692     -5.94395000
  H        7.53312213      1.19754600     -6.01005383
  C       -0.49118472      1.80461531      1.04236828
  H       -0.09572112      2.45234447      1.83463865
  H       -1.51692797      1.53717811      1.31611154
  H       -0.53995147      2.39660077      0.12165902
  C       -1.00712976     -1.18601286      2.14012558
  H       -1.86841484     -0.51849845      2.01147258
  H       -1.02957483     -1.86694800      1.27824528
  C       -1.22093243     -1.97803491      3.44308309
  H       -2.21528755     -2.44776784      3.40968778
  H       -1.25109863     -1.26641989      4.28084390
  C       -0.18439053     -3.07349048      3.77231853
  H        0.81007790     -2.60658187      3.81409266
  C       -0.14231760     -4.18000991      2.70641552
  H       -1.12205350     -4.66632786      2.61191354
  H        0.58728131     -4.95312312      2.97321137
  H        0.13392776     -3.79390126      1.71989772
  C       -0.46919113     -3.67284801      5.15885581
  H       -1.45344037     -4.15834986      5.18023334
  H        0.27886306     -4.42724123      5.42824367
  H       -0.46247301     -2.90080280      5.93683378



