%Mem=256MB 
%NProc=12 

#P HF/6-31G* SCF(Conver=6) NoSymm Test 
   Pop=mk IOp(6/33=2) GFInput GFPrint 

MEP - Input generated by R.E.D.-III.x MOLECULE 

0 1 
  O        6.70233887      0.90100826      0.00000000
  H        7.05516115     -0.00000000      0.00000000
  O        9.85516987      0.37191027     -6.41142411
  H        9.98501185     -0.58500595     -6.47148952
  C        2.44391368      0.51458237     -1.59755618
  C        3.80141250      1.14647406     -1.17182396
  H        3.76971084      2.17812239     -1.56378867
  C        5.05180934      0.50983035     -1.80487602
  H        5.13996901     -0.53600759     -1.47557602
  C        4.93176589      0.55485420     -3.35373058
  H        4.96756050      1.62330255     -3.62334464
  C        1.45371590      1.40069468     -0.76310338
  H        1.41472625      2.37530636     -1.27554667
  C        2.35266350      0.65457659     -3.13026291
  H        2.30013670      1.72354031     -3.38289895
  H        1.44137299      0.19697807     -3.52753340
  C        6.14989129     -0.10487139     -4.08961945
  C        3.69917168      1.26146872      0.35684420
  H        4.37555964      2.01573487      0.76537009
  H        3.97585681      0.31561650      0.83455683
  C        3.56485275      0.02018515     -3.83827992
  H        3.52204842     -1.06566025     -3.70041598
  H        3.46462211      0.19126422     -4.91586489
  C        2.20380944      1.59988782      0.59795748
  H        1.77548386      0.94807855      1.36908230
  H        2.08501927      2.62496763      0.96194015
  C        6.33595520      1.23311401     -1.35414746
  H        6.13697916      2.31310664     -1.30413941
  C       -0.01540201      0.94020524     -0.57239860
  H        0.00000000      0.00000000      0.00000000
  C        2.32733946     -0.96760903     -1.17331614
  H        3.13921648     -1.58032494     -1.57391688
  H        2.34302607     -1.08321422     -0.08558257
  H        1.38856580     -1.40113495     -1.53334551
  C        7.46136435      0.37055734     -3.45498100
  C        6.13770872      0.35176588     -5.58217437
  H        5.98072074      1.43897988     -5.60726135
  H        5.28005134     -0.09746612     -6.09386953
  C        7.50604041      0.98780010     -2.26522181
  H        8.46293678      1.33503122     -1.87552325
  C        6.09341766     -1.65460266     -4.02085052
  H        5.26435620     -2.05027188     -4.61558012
  H        7.01065480     -2.10797681     -4.40563401
  H        5.97051941     -2.00141381     -2.99023465
  C        8.73829634      0.12610428     -4.23688856
  H        9.58721396      0.59932767     -3.73378168
  H        8.95286646     -0.95440723     -4.27024282
  C        7.41767848      0.03152264     -6.36952864
  H        7.55006735     -1.05666361     -6.46284901
  H        7.33838960      0.42593515     -7.38893652
  C       -0.79420788      1.97725168      0.27516501
  H       -0.19369009      2.25668961      1.14810995
  H       -0.91448453      2.89751594     -0.31724135
  C        8.64895437      0.62596495     -5.68642030
  H        8.56460376      1.71952977     -5.68119631
  C       -0.75004029      0.67723272     -1.89905521
  H       -0.71531786      1.56160422     -2.54783748
  H       -1.80291643      0.43455991     -1.72734328
  H       -0.31819278     -0.15934198     -2.45280146
  C       -2.17050202      1.51674433      0.78377835
  H       -2.83372150      1.30141812     -0.06160073
  H       -2.04622906      0.57135968      1.32936606
  C       -2.83041150      2.56335153      1.69660098
  H       -2.91185707      3.50995988      1.14279592
  H       -2.15815900      2.76563036      2.54294442
  C       -4.22675825      2.21008984      2.25998380
  H       -4.52381414      3.06499377      2.88544506
  C       -4.20211583      0.97168155      3.17116876
  H       -3.97481638      0.05942511      2.60760155
  H       -5.17489784      0.82327238      3.65382403
  H       -3.44911620      1.07278683      3.96166298
  C       -5.29172298      2.06554600      1.16008913
  H       -5.10297763      1.19150822      0.52611310
  H       -6.28912578      1.94176578      1.59727889
  H       -5.31867703      2.94949254      0.51200013



