%Mem=256MB 
%NProc=12 

#P HF/6-31G* SCF(Conver=6) NoSymm Test 
   Pop=mk IOp(6/33=2) GFInput GFPrint 

MEP - Input generated by R.E.D.-III.x MOLECULE 

0 1 
  O        6.70170122      0.89942787      0.00000000
  H        7.05854072      0.00000000     -0.00000000
  O        9.84936033      0.36937468     -6.41419488
  H        9.98290161     -0.58717437     -6.47198048
  C        2.44222270      0.50664391     -1.59349171
  C        3.79953230      1.14188654     -1.17178195
  H        3.76635332      2.17147569     -1.56893190
  C        5.05020483      0.50385840     -1.80282043
  H        5.13907853     -0.54086376     -1.47017642
  C        4.92925443      0.54395700     -3.35164269
  H        4.96199477      1.61168166     -3.62442509
  C        1.45260514      1.39646412     -0.76226265
  H        1.41540754      2.36944495     -1.27802329
  C        2.35009515      0.63935593     -3.12689442
  H        2.29481830      1.70697290     -3.38457808
  H        1.43981141      0.17775492     -3.52187513
  C        6.14816847     -0.11470031     -4.08678163
  C        3.69892622      1.26468352      0.35635162
  H        4.37328569      2.02347072      0.75989368
  H        3.97950520      0.32243215      0.83883574
  C        3.56313799      0.00430162     -3.83292967
  H        3.52282689     -1.08104307     -3.69024232
  H        3.46157233      0.17041811     -4.91113528
  C        2.20281910      1.59946738      0.59786575
  H        1.77775438      0.94598837      1.36926801
  H        2.07987506      2.62411493      0.96171608
  C        6.33370628      1.22966283     -1.35422589
  H        6.13304117      2.30937906     -1.30514098
  C       -0.01810107      0.94070782     -0.56887176
  H        0.00000000      0.00000000      0.00000000
  C        2.32608271     -0.97354461     -1.16273939
  H        3.13626514     -1.58858319     -1.56326337
  H        2.34494168     -1.08479244     -0.07458051
  H        1.38584379     -1.40759153     -1.51854912
  C        7.45894366      0.36649736     -3.45491774
  C        6.13294371      0.33696383     -5.58086364
  H        5.97188391      1.42348635     -5.60934465
  H        5.27652873     -0.11715139     -6.09034352
  C        7.50334179      0.98576320     -2.26617242
  H        8.45971095      1.33652017     -1.87836028
  C        6.09651636     -1.66435707     -4.01286190
  H        5.26834117     -2.06466336     -4.60572154
  H        7.01497318     -2.11608905     -4.39673541
  H        5.97551955     -2.00814309     -2.98101563
  C        8.73578041      0.12479021     -4.23790778
  H        9.58357991      0.60230085     -3.73696677
  H        8.95422621     -0.95501788     -4.26902723
  C        7.41337042      0.01903160     -6.36846048
  H        7.54992281     -1.06895132     -6.45828926
  H        7.33144381      0.40971431     -7.38909473
  C       -0.78191596      1.99185490      0.27714553
  H       -0.21780779      2.19253485      1.19392077
  H       -0.78942206      2.93978237     -0.28155212
  C        8.64292526      0.62053775     -5.68858336
  H        8.55407842      1.71376825     -5.68640427
  C       -0.75643290      0.67890637     -1.89283892
  H       -0.74108354      1.56897874     -2.53466618
  H       -1.80413063      0.41649384     -1.71806889
  H       -0.31351970     -0.14554913     -2.45564616
  C       -2.23572332      1.65325986      0.66396960
  H       -2.63761616      2.50283338      1.23074459
  H       -2.85715957      1.59121041     -0.23774681
  C       -2.43659751      0.35865215      1.47453939
  H       -2.12780657     -0.50157469      0.86507103
  H       -3.51453632      0.22642935      1.65051560
  C       -1.71339886      0.27495349      2.83553727
  H       -0.63460633      0.39613806      2.66087770
  C       -1.92451962     -1.11181545      3.46431066
  H       -2.98811364     -1.29069710      3.66827946
  H       -1.38428809     -1.20561177      4.41330075
  H       -1.57514553     -1.90993264      2.79906618
  C       -2.15874156      1.37992925      3.80674077
  H       -3.23831877      1.31890040      3.99679178
  H       -1.64630660      1.28326371      4.77065562
  H       -1.94476435      2.38143662      3.41988752



