%Mem=256MB 
%NProc=12 

#P HF/6-31G* SCF(Conver=6) NoSymm Test 
   Pop=mk IOp(6/33=2) GFInput GFPrint 

MEP - Input generated by R.E.D.-III.x MOLECULE 

0 1 
  O        6.70145331      0.90206744      0.00000000
  H        7.05158573     -0.00000000      0.00000000
  O        9.77880858      0.33908524     -6.44567043
  H        9.90476558     -0.61844544     -6.50425214
  C        2.42522457      0.52358491     -1.54881729
  C        3.78880696      1.15302522     -1.14020376
  H        3.75629067      2.18204548     -1.53866830
  C        5.02943797      0.50886106     -1.78423587
  H        5.11754032     -0.53596735     -1.45162697
  C        4.89142331      0.54846331     -3.33207896
  H        4.92792053      1.61587767     -3.60562974
  C        1.45134856      1.41898676     -0.70648717
  H        1.43378755      2.39370435     -1.21605648
  C        2.31482190      0.65775415     -3.08014632
  H        2.26119464      1.72554810     -3.33735010
  H        1.39695365      0.19967957     -3.46239159
  C        6.09884771     -0.11796547     -4.07963449
  C        3.70413510      1.27906623      0.38989229
  H        4.37564010      2.04641636      0.78199037
  H        4.00120719      0.34185014      0.87218314
  C        3.51700308      0.01732654     -3.80008767
  H        3.47194708     -1.06803302     -3.65931963
  H        3.40581316      0.18619739     -4.87691428
  C        2.20653398      1.59663307      0.65110288
  H        1.79396952      0.91902339      1.40808730
  H        2.07219333      2.61023511      1.04263967
  C        6.32122218      1.22941019     -1.35143182
  H        6.12659973      2.31033387     -1.30415915
  C       -0.01944014      0.97243266     -0.51346403
  H        0.00000000      0.00000000      0.00000000
  C        2.30585992     -0.95668180     -1.12032714
  H        3.10762899     -1.57506883     -1.53229686
  H        2.33687423     -1.07144613     -0.03281721
  H        1.35895130     -1.38405793     -1.46711795
  C        7.41911335      0.35527953     -3.46188719
  C        6.07103694      0.33338161     -5.57364765
  H        5.91706319      1.42096444     -5.60076074
  H        5.20627696     -0.11502579     -6.07404323
  C        7.47991418      0.97613883     -2.27472392
  H        8.44251088      1.32118371     -1.89734081
  C        6.03822447     -1.66718809     -4.00462378
  H        5.20033513     -2.06218907     -4.58726885
  H        6.94902022     -2.12483852     -4.39951071
  H        5.92763349     -2.00988526     -2.97126519
  C        8.68609411      0.10385815     -4.25775892
  H        9.54237430      0.57571417     -3.76596776
  H        8.89661240     -0.97745273     -4.29025021
  C        7.34092954      0.00667997     -6.37464305
  H        7.46880865     -1.08219987     -6.46618948
  H        7.25097675      0.39816159     -7.39429808
  C       -0.80505169      1.92208676      0.43217158
  H       -1.79081550      1.46854489      0.59976391
  H       -0.31641677      1.94343413      1.41456073
  C        8.58181722      0.59942475     -5.70775047
  H        8.50099077      1.69327797     -5.70523214
  C       -0.79011273      0.77644309     -1.83276697
  H       -0.71487029      1.65396513     -2.48470051
  H       -1.85401014      0.60247917     -1.63217139
  H       -0.42327553     -0.08433570     -2.39753652
  C       -0.99037014      3.36954336     -0.05353154
  H       -0.00827418      3.81405696     -0.25861847
  H       -1.52815736      3.38024994     -1.00941085
  C       -1.71024439      4.28242591      0.95764973
  H       -1.69105632      5.31360050      0.57445861
  H       -1.12785226      4.29591575      1.89035495
  C       -3.17260451      3.92782835      1.30244004
  H       -3.19575467      2.90283998      1.69912225
  C       -4.09397719      3.97894315      0.07333779
  H       -4.08925440      4.98113533     -0.37497214
  H       -5.12828596      3.74425438      0.34960360
  H       -3.79069121      3.26680651     -0.70088870
  C       -3.69670386      4.85950025      2.40714867
  H       -3.70147668      5.90364418      2.06851380
  H       -4.72185682      4.59922877      2.69456872
  H       -3.07191046      4.80447357      3.30603383



