%Mem=256MB 
%NProc=12 

#P HF/6-31G* SCF(Conver=6) NoSymm Test 
   Pop=mk IOp(6/33=2) GFInput GFPrint 

MEP - Input generated by R.E.D.-III.x MOLECULE 

0 1 
  O        0.00000000      0.00000000      0.00000000
  H       -0.30513107      0.15880131      0.90443171
  O       -1.41323880      7.02599992      0.00000000
  H       -1.47755802      7.20201806      0.94923431
  C        4.52248926      0.50646488      0.18276843
  C        3.08489230      0.36768852     -0.38539101
  H        3.16990493      0.64485630     -1.45004502
  C        2.06235014      1.35373957      0.20448944
  H        1.93303262      1.15629869      1.27872486
  C        2.57166234      2.81120292      0.00119715
  H        2.54928401      2.98040973     -1.08803683
  C        5.23376569     -0.61675968     -0.63497420
  H        5.22549275     -0.23297675     -1.66542348
  C        5.00715804      1.93234059     -0.12598895
  H        5.07869413      2.05345695     -1.21665005
  H        6.01431080      2.10763464      0.27533787
  C        1.60963807      3.88958017      0.61304346
  C        2.81452390     -1.15047776     -0.35255975
  H        2.07153965     -1.45211978     -1.09464072
  H        2.41011156     -1.45147324      0.61942610
  C        4.04509884      2.99225111      0.44468100
  H        4.10920696      2.97294417      1.53752994
  H        4.39730958      3.98379316      0.13988126
  C        4.21321898     -1.79557434     -0.60089603
  H        4.44752339     -2.50488902      0.19760116
  H        4.23886980     -2.36502640     -1.53600032
  C        0.67930206      1.18739665     -0.45353832
  H        0.81729333      1.00412067     -1.52869592
  C        6.73217156     -0.93960043     -0.34138767
  H        7.19026942      0.00000000      0.00000000
  C        4.58257688      0.23909195      1.70271977
  H        3.94275656      0.92150697      2.26831901
  H        4.27052010     -0.77777890      1.95597429
  H        5.60325447      0.37657324      2.07396292
  C        0.15930667      3.57017850      0.23306375
  C        1.97391231      5.28340093      0.01210368
  H        2.08058349      5.17101200     -1.07569157
  H        2.95253835      5.59842613      0.38915751
  C       -0.21282011      2.38228605     -0.26588942
  H       -1.25230835      2.22082400     -0.55129062
  C        1.72016254      3.94741224      2.16039027
  H        2.68908088      4.34590297      2.47652896
  H        0.95059412      4.59094507      2.59455063
  H        1.59769411      2.95459783      2.60402483
  C       -0.86695960      4.66975073      0.43165470
  H       -1.83708109      4.35919536      0.03150234
  H       -1.01305476      4.85258926      1.50858195
  C        0.94920338      6.39577683      0.28362459
  H        0.89723935      6.61664575      1.36016758
  H        1.26285650      7.32194920     -0.21121136
  C        6.97593206     -2.01008033      0.74948924
  H        6.39824563     -1.76307434      1.64597887
  H        6.57768752     -2.96906515      0.39320067
  C       -0.44135205      5.99832482     -0.21066900
  H       -0.41407621      5.87441632     -1.30014191
  C        7.44027142     -1.33116898     -1.65507750
  H        7.02598586     -2.26271692     -2.06121641
  H        8.51529484     -1.48048155     -1.51670789
  H        7.31420236     -0.55244994     -2.41522818
  C        8.44747758     -2.25130103      1.15207063
  H        8.46359402     -3.07117127      1.88148551
  H        9.00442116     -2.62878604      0.28594366
  C        9.21839402     -1.04740900      1.72521823
  H        9.25565286     -0.24768166      0.97315823
  H       10.26316369     -1.35405944      1.88310980
  C        8.69185444     -0.45056280      3.04752497
  H        7.64665444     -0.14578873      2.89668850
  C        9.49045383      0.81014328      3.41627157
  H       10.54772946      0.56746698      3.58364094
  H        9.10682946      1.27135919      4.33357513
  H        9.44466548      1.56049677      2.61850130
  C        8.72172467     -1.46325510      4.20350195
  H        9.74467964     -1.81964219      4.38186244
  H        8.36303400     -1.00646584      5.13292793
  H        8.09442221     -2.33785890      4.00383310



