%Mem=256MB 
%NProc=12 

#P HF/6-31G* SCF(Conver=6) NoSymm Test 
   Pop=mk IOp(6/33=2) GFInput GFPrint 

MEP - Input generated by R.E.D.-III.x MOLECULE 

0 1 
  O        6.70823193      0.90142060      0.00000000
  H        7.06001289     -0.00000000      0.00000000
  O        9.78712651      0.34245147     -6.44535742
  H        9.91429759     -0.61494090     -6.50356482
  C        2.43278744      0.51619377     -1.55005309
  C        3.79506065      1.14719678     -1.13984364
  H        3.76114332      2.17681349     -1.53652578
  C        5.03672700      0.50581038     -1.78453175
  H        5.12655504     -0.53909200     -1.45276946
  C        4.89917260      0.54643901     -3.33237312
  H        4.93489177      1.61408071     -3.60515196
  C        1.45782467      1.40881193     -0.70614474
  H        1.44478343      2.38724507     -1.20967459
  C        2.32228580      0.65151139     -3.08118558
  H        2.26717462      1.71955043     -3.33726844
  H        1.40529223      0.19212757     -3.46358853
  C        6.10740465     -0.11837968     -4.07999521
  C        3.71013307      1.26976897      0.39073873
  H        4.37581253      2.04201126      0.78325120
  H        4.01549941      0.33440061      0.87133039
  C        3.52565902      0.01416131     -3.80176088
  H        3.48219402     -1.07149072     -3.66287897
  H        3.41450878      0.18472073     -4.87833347
  C        2.21018284      1.57492562      0.65433181
  H        1.80131098      0.88394948      1.40115903
  H        2.06825657      2.58156294      1.06019887
  C        6.32752326      1.22818615     -1.35140609
  H        6.13130824      2.30882185     -1.30416080
  C       -0.01551363      0.96824706     -0.52239369
  H        0.00000000      0.00000000      0.00000000
  C        2.31624155     -0.96463052     -1.12233830
  H        3.11872140     -1.58143873     -1.53526553
  H        2.34877335     -1.08010652     -0.03500931
  H        1.36986906     -1.39350876     -1.46844403
  C        7.42706813      0.35598141     -3.46183210
  C        6.07935044      0.33348049     -5.57382187
  H        5.92479371      1.42100265     -5.60056925
  H        5.21484053     -0.11523897     -6.07426100
  C        7.48676376      0.97663440     -2.27452276
  H        8.44883144      1.32279508     -1.89679688
  C        6.04807773     -1.66774070     -4.00556297
  H        5.21191578     -2.06335807     -4.59030592
  H        6.96020237     -2.12448530     -4.39835085
  H        5.93521932     -2.01096778     -2.97259148
  C        8.69444488      0.10615646     -4.25753980
  H        9.55011187      0.57904819     -3.76567552
  H        8.90621252     -0.97493537     -4.28996319
  C        7.34950863      0.00760558     -6.37468747
  H        7.47827725     -1.08120098     -6.46587425
  H        7.25945733      0.39884134     -7.39442522
  C       -0.79185556      1.91389911      0.43940648
  H       -1.81913242      1.53168281      0.52614365
  H       -0.35309929      1.80187939      1.43798660
  C        8.58977038      0.60155541     -5.70757008
  H        8.50782416      1.69531940     -5.70506456
  C       -0.76800883      0.73872749     -1.84784341
  H       -0.64484138      1.57258507     -2.54582719
  H       -1.84146242      0.61563715     -1.66504795
  H       -0.42113635     -0.16558218     -2.35567052
  C       -0.85663320      3.42800751      0.13775682
  H       -1.19262889      3.91584167      1.06174588
  H        0.15354464      3.81275407     -0.04700636
  C       -1.79455853      3.85239575     -1.00629155
  H       -2.76165908      3.34528613     -0.87626694
  H       -1.39454969      3.49974659     -1.96392999
  C       -2.05974151      5.37220374     -1.13569952
  H       -2.71059737      5.48869408     -2.01497782
  C       -0.77748577      6.17446847     -1.41355191
  H       -0.09780349      6.15933853     -0.55373377
  H       -1.01179339      7.22378953     -1.62634287
  H       -0.23399553      5.77226979     -2.27677360
  C       -2.82449233      5.95230503      0.06593092
  H       -2.22113442      5.93515886      0.98076069
  H       -3.10385526      6.99589108     -0.11896954
  H       -3.74514236      5.39000652      0.26154034



