%Mem=256MB 
%NProc=12 

#P HF/6-31G* SCF(Conver=6) NoSymm Test 
   Pop=mk IOp(6/33=2) GFInput GFPrint 

MEP - Input generated by R.E.D.-III.x MOLECULE 

0 1 
  O        0.00000000      0.00000000      0.00000000
  H       -0.29943339      0.15813575      0.90644876
  O       -1.42155554      7.02477710      0.00000000
  H       -1.48605876      7.19964511      0.94943389
  C        4.52181564      0.51182377      0.16480328
  C        3.08378905      0.37417173     -0.40144290
  H        3.16658969      0.65700467     -1.46490906
  C        2.06136438      1.35601017      0.19538320
  H        1.93764677      1.15560239      1.26972511
  C        2.56796516      2.81480058     -0.00606802
  H        2.54413771      2.98573005     -1.09497838
  C        5.23479576     -0.60399697     -0.66150717
  H        5.24021792     -0.20853636     -1.68777178
  C        5.00504069      1.93979736     -0.13687552
  H        5.07772484      2.06578614     -1.22687843
  H        6.01153639      2.11427897      0.26650123
  C        1.60530933      3.89109946      0.60830869
  C        2.81643599     -1.14447843     -0.37731340
  H        2.06410160     -1.44241883     -1.11142336
  H        2.42637492     -1.45395505      0.59793897
  C        4.04145122      2.99694985      0.43674047
  H        4.10581851      2.97589129      1.52957088
  H        4.39210976      3.98961732      0.13379128
  C        4.21342942     -1.78322752     -0.65051200
  H        4.45451824     -2.51454615      0.12603018
  H        4.23153763     -2.32638192     -1.60127104
  C        0.67593918      1.18797159     -0.45713823
  H        0.80986235      1.00386994     -1.53264913
  C        6.72425653     -0.93577874     -0.34799649
  H        7.18425012     -0.00000000     -0.00000000
  C        4.58817836      0.23623442      1.68331432
  H        3.96566926      0.92879578      2.25583453
  H        4.25561630     -0.77476912      1.93402676
  H        5.61435998      0.34900438      2.04803035
  C        0.15478053      3.57042808      0.23007120
  C        1.96752015      5.28608336      0.00868740
  H        2.07353525      5.17510606     -1.07933814
  H        2.94604672      5.60188495      0.38532210
  C       -0.21703534      2.38190503     -0.26764437
  H       -1.25695808      2.21919134     -0.55075495
  C        1.71701946      3.94696519      2.15565591
  H        2.68436887      4.34907892      2.47206811
  H        0.94493301      4.58628064      2.59156068
  H        1.59906787      2.95294490      2.59775152
  C       -0.87241577      4.66892803      0.43010540
  H       -1.84256178      4.35761086      0.03063151
  H       -1.01768185      4.85114033      1.50730565
  C        0.94170225      6.39694344      0.28202523
  H        0.89009818      6.61668377      1.35881298
  H        1.25388146      7.32398886     -0.21211162
  C        6.95096730     -2.01337764      0.74089426
  H        6.24393122     -1.87578667      1.56575522
  H        6.71948382     -2.99558149      0.30730376
  C       -0.44862689      5.99828674     -0.21176796
  H       -0.42185087      5.87493452     -1.30131722
  C        7.44903784     -1.33615977     -1.64976432
  H        6.99073593     -2.23006514     -2.09117454
  H        8.50741886     -1.55809131     -1.48007092
  H        7.39714389     -0.53351955     -2.39378282
  C        8.37327497     -2.07220098      1.33779323
  H        8.44968783     -2.99721896      1.92289638
  H        9.11167289     -2.16561571      0.53249795
  C        8.72845687     -0.87743869      2.23925943
  H        7.96770217     -0.79883527      3.02967934
  H        8.66072070      0.05252591      1.65911361
  C       10.12167227     -0.91566709      2.91185638
  H       10.19178249      0.00510138      3.50993550
  C       11.27291601     -0.87931113      1.89293864
  H       11.31273413     -1.79675004      1.29459428
  H       12.23915613     -0.77867412      2.40034691
  H       11.16867665     -0.03376146      1.20279156
  C       10.28175649     -2.09627054      3.88415759
  H       10.29237664     -3.05728408      3.35731139
  H       11.22397630     -2.01823593      4.43856000
  H        9.46539021     -2.12443724      4.61551607



