%Mem=256MB 
%NProc=12 

#P HF/6-31G* SCF(Conver=6) NoSymm Test 
   Pop=mk IOp(6/33=2) GFInput GFPrint 

MEP - Input generated by R.E.D.-III.x MOLECULE 

0 1 
  O        6.09568220      3.76467763      0.00000000
  H        5.82668355      3.77628464     -0.92940711
  O        0.00000000      0.00000000      0.00000000
  H       -0.10935981     -0.17037772     -0.94613596
  C        8.82567554      0.13093746      0.41946791
  C        7.89489455      1.32063499      0.79495818
  H        7.67564397      1.18072408      1.86779763
  C        6.52226300      1.32676022      0.09865821
  H        6.65955104      1.44127343     -0.98670179
  C        5.78564071     -0.01118837      0.38779833
  H        5.57423617     -0.00529945      1.46985777
  C       10.07776171      0.48173261      1.29650160
  H        9.78365593      0.25490630      2.33234179
  C        8.07223586     -1.15953482      0.79671284
  H        7.94564803     -1.18721537      1.88874270
  H        8.64092331     -2.05500020      0.52665801
  C        4.38589449     -0.11210024     -0.31296719
  C        8.80288757      2.55772467      0.69610959
  H        8.44011753      3.38921358      1.30481907
  H        8.83900968      2.92955264     -0.33325860
  C        6.69073914     -1.23531078      0.11912999
  H        6.83646431     -1.35861237     -0.95941585
  H        6.18699899     -2.14624495      0.46106962
  C       10.19140329      2.03459884      1.15494704
  H       10.96307750      2.29343497      0.42017902
  H       10.50356425      2.49210912      2.09914036
  C        5.66123423      2.51449054      0.57123087
  H        5.81890541      2.66111240      1.64925581
  C       11.42222265     -0.24037627      1.03176626
  H       11.71931947     -0.00000000      0.00000000
  C        9.20090464      0.12591722     -1.08022356
  H        8.32197493      0.09258381     -1.72940797
  H        9.77485860      1.01376786     -1.36136417
  H        9.81319945     -0.74921430     -1.32263284
  C        3.60963728      1.19465837     -0.11616345
  C        3.57478508     -1.26561560      0.35637413
  H        3.65670330     -1.15527385      1.44651483
  H        4.03474052     -2.22748800      0.10647856
  C        4.19360820      2.32505339      0.30773464
  H        3.58750858      3.21764693      0.46265920
  C        4.52226418     -0.38924612     -1.83420201
  H        4.91182715     -1.39429645     -2.02312162
  H        3.55804276     -0.31677399     -2.34405611
  H        5.19329003      0.33229526     -2.31034066
  C        2.12186422      1.16814959     -0.41180896
  H        1.66359090      2.12297930     -0.13612257
  H        1.96004143      1.04071558     -1.49449803
  C        2.08397012     -1.30989122     -0.01293396
  H        1.95916604     -1.53147470     -1.08333483
  H        1.58678750     -2.11873639      0.53443335
  C       12.57576163      0.32774571      1.90943201
  H       13.49409882     -0.21145109      1.64159742
  H       12.74984071      1.36372843      1.59552741
  C        1.39731305      0.01835810      0.30377420
  H        1.43410899      0.19326210      1.38594465
  C       11.33035134     -1.77647562      1.11536640
  H       10.83376564     -2.11316534      2.03082403
  H       12.33015328     -2.22442403      1.09500702
  H       10.77429818     -2.19296871      0.27100275
  C       12.42139376      0.34574733      3.44728048
  H       13.16862465      1.04766792      3.83943691
  H       11.45230421      0.78757830      3.71096576
  C       12.56186402     -0.98589197      4.21274620
  H       11.75073253     -1.66630199      3.92864958
  H       12.41027895     -0.77361990      5.28199671
  C       13.90259959     -1.73649289      4.06553767
  H       14.05652677     -1.96534560      3.00149611
  C       13.84440123     -3.07539698      4.81870868
  H       13.69759802     -2.91290666      5.89431325
  H       14.77288136     -3.64405085      4.69279536
  H       13.01742981     -3.69961758      4.46109807
  C       15.10115029     -0.90146077      4.54394408
  H       14.98345175     -0.62005649      5.59863576
  H       16.03393374     -1.46992323      4.45482194
  H       15.22110909      0.01974707      3.96484291



