%Mem=256MB 
%NProc=12 

#P HF/6-31G* SCF(Conver=6) NoSymm Test 
   Pop=mk IOp(6/33=2) GFInput GFPrint 

MEP - Input generated by R.E.D.-III.x MOLECULE 

0 1 
  O        6.68461015      0.90073808      0.00000000
  H        7.03812201      0.00000000     -0.00000000
  O        9.83912943      0.37126278     -6.41056502
  H        9.96857495     -0.58571395     -6.47056108
  C        2.42702986      0.51712245     -1.59991464
  C        3.78449846      1.14673066     -1.17166623
  H        3.75449548      2.17959555     -1.56062725
  C        5.03459520      0.51007568     -1.80529357
  H        5.12259788     -0.53579261     -1.47615171
  C        4.91451156      0.55527716     -3.35424670
  H        4.95020684      1.62377380     -3.62362205
  C        1.43659790      1.40405403     -0.76764483
  H        1.39575643      2.37807726     -1.28120631
  C        2.33577138      0.65650591     -3.13239757
  H        2.28462242      1.72540672     -3.38564304
  H        1.42320552      0.19984457     -3.52828259
  C        6.13267553     -0.10439682     -4.08999931
  C        3.67934253      1.25689097      0.35737439
  H        4.35985631      2.00463298      0.77092323
  H        3.94769379      0.30701632      0.83191772
  C        3.54760751      0.02060670     -3.83951422
  H        3.50416968     -1.06509653     -3.70077894
  H        3.44837915      0.19088468     -4.91729693
  C        2.18560151      1.60564834      0.59462587
  H        1.75040726      0.96362842      1.36982541
  H        2.07662572      2.63405847      0.95214667
  C        6.31885361      1.23297408     -1.35431287
  H        6.12015536      2.31302179     -1.30437927
  C       -0.02944250      0.93870330     -0.57285522
  H        0.00000000      0.00000000      0.00000000
  C        2.30944785     -0.96533633     -1.17583559
  H        3.12450761     -1.57699607     -1.57146038
  H        2.31899154     -1.08110378     -0.08808398
  H        1.37373943     -1.40044874     -1.54156565
  C        7.44425279      0.37049540     -3.45501407
  C        6.12128954      0.35257752     -5.58249471
  H        5.96474119      1.43984733     -5.60734543
  H        5.26370192     -0.09613114     -6.09474102
  C        7.48905294      0.98738866     -2.26507679
  H        8.44602600      1.33409814     -1.87511107
  C        6.07589718     -1.65412586     -4.02174535
  H        5.24750468     -2.04965334     -4.61748214
  H        6.99352204     -2.10748486     -4.40559046
  H        5.95199395     -2.00129046     -2.99139595
  C        8.72137225      0.12573993     -4.23649127
  H        9.57023128      0.59858920     -3.73294197
  H        8.93556390     -0.95486138     -4.26991898
  C        7.40148299      0.03202692     -6.36949795
  H        7.53350014     -1.05618444     -6.46318471
  H        7.32260766      0.42675205     -7.38881929
  C       -0.83280422      1.97490135      0.27197688
  H       -0.14531402      2.68252480      0.74640616
  H       -1.45795291      2.57789907     -0.40224769
  C        8.63277809      0.62584262     -5.68595342
  H        8.54898027      1.71945565     -5.68077509
  C       -0.76586850      0.66102349     -1.89689366
  H       -0.70690029      1.52986287     -2.56424125
  H       -1.82594274      0.45865957     -1.71728692
  H       -0.35687939     -0.19963752     -2.43230147
  C       -1.71640133      1.38120373      1.38647841
  H       -1.07334643      0.81386645      2.07225230
  H       -2.13040807      2.21223768      1.97578384
  C       -2.88035065      0.49755043      0.91245975
  H       -2.49297040     -0.39611164      0.40225180
  H       -3.45783726      1.05399387      0.16007161
  C       -3.84714700      0.04294588      2.02579172
  H       -4.19637496      0.94568554      2.55074201
  C       -3.16934887     -0.87058540      3.06006713
  H       -2.77609555     -1.77604622      2.57946517
  H       -3.88300810     -1.18737478      3.82914809
  H       -2.33705018     -0.37369798      3.56822364
  C       -5.07753781     -0.65174895      1.42089465
  H       -4.78637601     -1.56222830      0.88132738
  H       -5.79320968     -0.94227426      2.19846965
  H       -5.59856378      0.00254688      0.71249501



