%Mem=256MB 
%NProc=12 

#P HF/6-31G* SCF(Conver=6) NoSymm Test 
   Pop=mk IOp(6/33=2) GFInput GFPrint 

MEP - Input generated by R.E.D.-III.x MOLECULE 

0 1 
  O        0.00000000      0.00000000      0.00000000
  H       -0.22963235      0.13698720      0.92994782
  O       -3.05422899      6.48061203      0.00000000
  H       -3.05542017      6.68076890      0.94662097
  C        4.27194484      1.55362953     -0.41523296
  C        2.84235946      1.06753359     -0.79382833
  H        2.73632846      1.30569257     -1.86666445
  C        1.68793251      1.81005880     -0.09703774
  H        1.73989938      1.63704119      0.98802077
  C        1.80090706      3.33354374     -0.38272710
  H        1.62307855      3.44665366     -1.46491840
  C        5.13525493      0.58087409     -1.29298047
  H        5.04404613      0.94632196     -2.32841036
  C        4.34372959      3.04798111     -0.78789256
  H        4.25336641      3.14250494     -1.87975665
  H        5.30786307      3.48940910     -0.51722930
  C        0.68153912      4.18051507      0.31745485
  C        2.92836764     -0.46340865     -0.69727907
  H        2.15751644     -0.96338189     -1.28814849
  H        2.78016836     -0.79403527      0.33622151
  C        3.22686952      3.86360377     -0.10927143
  H        3.41396313      3.88321401      0.96985336
  H        3.30341313      4.90302845     -0.44726700
  C        4.36530952     -0.77986198     -1.19106712
  H        4.87665922     -1.45692710     -0.49604487
  H        4.34646576     -1.29032201     -2.15877502
  C        0.31886966      1.28460897     -0.57126919
  H        0.37218066      1.07528329     -1.64914537
  C        6.65262777      0.43019055     -1.00732264
  H        6.76262983     -0.00000000     -0.00000000
  C        4.58495719      1.34573469      1.08452153
  H        3.86195254      1.84631970      1.73392507
  H        4.58481290      0.28661586      1.35845992
  H        5.57312153      1.74630861      1.33338622
  C       -0.68158475      3.50944819      0.11664996
  C        0.63277374      5.59094459     -0.34940100
  H        0.64350889      5.45568447     -1.43976714
  H        1.54263754      6.14540860     -0.09654724
  C       -0.80809986      2.24410740     -0.30928210
  H       -1.80272799      1.82699687     -0.46682184
  C        0.94398526      4.33521832      1.83955024
  H        1.81837174      4.96464921      2.03155384
  H        0.09533016      4.79918626      2.34891131
  H        1.11199466      3.36331065      2.31359594
  C       -1.91456317      4.34310910      0.41070052
  H       -2.81896159      3.79350681      0.13191951
  H       -1.98326009      4.53633652      1.49356795
  C       -0.59311759      6.44099976      0.01856875
  H       -0.57934341      6.69306589      1.08938982
  H       -0.56708452      7.39101803     -0.52716738
  C        7.28632111     -0.57323130     -2.00328716
  H        6.65392665     -1.46555699     -2.07090479
  H        7.28291550     -0.12240273     -3.00779704
  C       -1.89261585      5.70323363     -0.30243656
  H       -1.95471662      5.53847923     -1.38503797
  C        7.41575325      1.76640170     -1.03964904
  H        7.26351255      2.28119799     -1.99675121
  H        8.49157480      1.61113002     -0.91546389
  H        7.09921550      2.44345125     -0.24316165
  C        8.71170013     -1.03662444     -1.65904661
  H        9.39769544     -0.18204770     -1.65853827
  H        8.71449192     -1.43742835     -0.63620240
  C        9.22628325     -2.10368093     -2.63920320
  H        9.18088284     -1.69409259     -3.65879968
  H        8.53307380     -2.95715186     -2.62558735
  C       10.65724739     -2.63713816     -2.39477881
  H       10.83775317     -3.38516726     -3.18101977
  C       10.79782204     -3.35924794     -1.04447640
  H       10.69409207     -2.66552286     -0.20217571
  H       11.78170445     -3.83420304     -0.95684490
  H       10.03806503     -4.14128512     -0.92915525
  C       11.73197570     -1.54878700     -2.55371879
  H       11.66136412     -0.79167347     -1.76423443
  H       12.73697801     -1.98279730     -2.50010720
  H       11.64091823     -1.03581274     -3.51843288



