%Mem=256MB 
%NProc=12 

#P HF/6-31G* SCF(Conver=6) NoSymm Test 
   Pop=mk IOp(6/33=2) GFInput GFPrint 

MEP - Input generated by R.E.D.-III.x MOLECULE 

0 1 
  O        0.00000000      0.00000000      0.00000000
  H       -0.48279082      0.00137939      0.83858824
  O       -3.25200612      6.38406064      0.00000000
  H       -3.52013095      6.45227641      0.92715661
  C        4.14046891      1.65273362      0.99567108
  C        2.89175004      1.19217297      0.18502087
  H        3.06413311      1.56112586     -0.84057934
  C        1.55697807      1.82385406      0.61877379
  H        1.31155638      1.50686444      1.64278752
  C        1.67235332      3.37428277      0.57171631
  H        1.78987488      3.63020586     -0.49427314
  C        5.23997209      0.81779150      0.25123515
  H        5.29342050      1.27434367     -0.74687109
  C        4.23940103      3.18165960      0.84389806
  H        4.43769530      3.42414967     -0.20956833
  H        5.07785741      3.58693328      1.42263571
  C        0.36469151      4.10542045      1.03728653
  C        3.02830327     -0.34119912      0.12554691
  H        2.48953027     -0.77263241     -0.72112442
  H        2.60124939     -0.80098975      1.02308758
  C        2.94342103      3.88407852      1.29113814
  H        2.83251156      3.76199145      2.37387861
  H        3.05454074      4.96027113      1.11863041
  C        4.56340030     -0.57473308      0.04894689
  H        4.88567273     -1.28765951      0.81498844
  H        4.86381410     -1.00464492     -0.91313595
  C        0.39884623      1.35572665     -0.28397664
  H        0.75625087      1.30151532     -1.32216458
  C        6.72099062      0.71012174      0.71637196
  H        7.16224508     -0.00000000     -0.00000000
  C        4.02356873      1.27295644      2.49044315
  H        3.07463543      1.60004952      2.92340903
  H        4.09346963      0.19414030      2.64953018
  H        4.81995222      1.74455672      3.07339614
  C       -0.85823596      3.45267027      0.38345748
  C        0.43034035      5.59303293      0.56897584
  H        0.74353232      5.60790085     -0.48410430
  H        1.20881537      6.11865678      1.13187054
  C       -0.80253237      2.25677870     -0.22092009
  H       -1.69529618      1.85434101     -0.69955840
  C        0.19542988      4.05418446      2.57940254
  H        0.95378124      4.66058499      3.08410003
  H       -0.78078113      4.43563021      2.88978960
  H        0.27383066      3.02864495      2.95304558
  C       -2.16387213      4.22386345      0.43134068
  H       -2.93094214      3.70695262     -0.15355903
  H       -2.53275621      4.26660006      1.46900716
  C       -0.88935492      6.37068822      0.69039111
  H       -1.17890439      6.47451031      1.74666802
  H       -0.76222159      7.38649482      0.29922418
  C        7.53498894      2.02167654      0.59514434
  H        7.12222078      2.76709271      1.28680563
  H        8.54787650      1.81427898      0.96626966
  C       -2.01555991      5.66877226     -0.06787372
  H       -1.77347366      5.65266206     -1.13753451
  C        6.97057546      0.09755693      2.10954071
  H        6.76707342      0.80910211      2.91521755
  H        8.02256833     -0.19699601      2.19792921
  H        6.36728329     -0.79637285      2.29226832
  C        7.64617082      2.66087042     -0.80294631
  H        6.65543215      2.98442815     -1.14353106
  H        8.23305929      3.58330812     -0.70561064
  C        8.26409537      1.77747134     -1.90390675
  H        8.26469965      2.35000216     -2.84334466
  H        7.61107823      0.91300291     -2.08459470
  C        9.69671225      1.26036553     -1.65441417
  H        9.69457509      0.67382782     -0.72422386
  C       10.71269038      2.40170952     -1.48809926
  H       10.73664780      3.03469633     -2.38479899
  H       11.72328163      2.00653807     -1.33431643
  H       10.47714361      3.04395727     -0.63335041
  C       10.12610696      0.31805325     -2.79050675
  H       10.15397709      0.85008886     -3.75017957
  H       11.12566322     -0.09376346     -2.61022618
  H        9.43104886     -0.52277907     -2.89689255



