%Mem=256MB 
%NProc=12 

#P HF/6-31G* SCF(Conver=6) NoSymm Test 
   Pop=mk IOp(6/33=2) GFInput GFPrint 

MEP - Input generated by R.E.D.-III.x MOLECULE 

0 1 
  O        0.00000000      0.00000000      0.00000000
  H       -0.22962330      0.13698763      0.92995017
  O       -3.05421899      6.48061677      0.00000000
  H       -3.05541047      6.68077252      0.94662136
  C        4.27194917      1.55362780     -0.41523742
  C        2.84236317      1.06752927     -0.79382693
  H        2.73633023      1.30568272     -1.86666455
  C        1.68793700      1.81005748     -0.09703891
  H        1.73990252      1.63704404      0.98802030
  C        1.80091118      3.33354183     -0.38273125
  H        1.62307941      3.44664817     -1.46492346
  C        5.13525833      0.58086924     -1.29298087
  H        5.04404760      0.94631173     -2.32841352
  C        4.34373328      3.04797763     -0.78790405
  H        4.25336493      3.14249655     -1.87976885
  H        5.30786713      3.48940632     -0.51724670
  C        0.68154692      4.18051562      0.31745152
  C        2.92837207     -0.46341209     -0.69726958
  H        2.15752117     -0.96338858     -1.28813625
  H        2.78017547     -0.79403346      0.33623255
  C        3.22687450      3.86360295     -0.10928269
  H        3.41397244      3.88321856      0.96984174
  H        3.30341706      4.90302586     -0.44728332
  C        4.36531379     -0.77986720     -1.19105895
  H        4.87666626     -1.45692776     -0.49603442
  H        4.34646843     -1.29033342     -2.15876394
  C        0.31887318      1.28460966     -0.57126902
  H        0.37218343      1.07528302     -1.64914557
  C        6.65263105      0.43018679     -1.00732358
  H        6.76263365      0.00000000      0.00000000
  C        4.58496389      1.34574012      1.08451752
  H        3.86195948      1.84632648      1.73392098
  H        4.58482231      0.28662181      1.35846068
  H        5.57312864      1.74631577      1.33337951
  C       -0.68157847      3.50945039      0.11664927
  C        0.63278252      5.59094418     -0.34940624
  H        0.64351495      5.45568321     -1.43977159
  H        1.54264701      6.14540763     -0.09655370
  C       -0.80809561      2.24411027     -0.30928086
  H       -1.80272364      1.82699907     -0.46681787
  C        0.94399582      4.33522032      1.83954608
  H        1.81838494      4.96464826      2.03154682
  H        0.09534383      4.79919237      2.34890700
  H        1.11200255      3.36331322      2.31359307
  C       -1.91455631      4.34311368      0.41070118
  H       -2.81895521      3.79351060      0.13192023
  H       -1.98325184      4.53633935      1.49356868
  C       -0.59310721      6.44100129      0.01856565
  H       -0.57932964      6.69306905      1.08938568
  H       -0.56707520      7.39101851     -0.52717221
  C        7.28632535     -0.57323815     -2.00328626
  H        6.65392789     -1.46556323     -2.07090572
  H        7.28292312     -0.12241116     -3.00779645
  C       -1.89260708      5.70323647     -0.30243688
  H       -1.95470906      5.53848039     -1.38503875
  C        7.41575741      1.76639856     -1.03965569
  H        7.26351336      2.28119185     -1.99675750
  H        8.49157906      1.61112568     -0.91547434
  H        7.09922247      2.44344904     -0.24316811
  C        8.71170107     -1.03663648     -1.65903965
  H        9.39770023     -0.18206227     -1.65853169
  H        8.71448818     -1.43743912     -0.63619507
  C        9.22628348     -2.10369726     -2.63919213
  H        9.18088847     -1.69411055     -3.65879015
  H        8.53307103     -2.95716612     -2.62557606
  C       10.65724533     -2.63715586     -2.39476235
  H       10.83775478     -3.38518500     -3.18100217
  C       10.79781406     -3.35926683     -1.04446003
  H       10.69408588     -2.66554269     -0.20215920
  H       11.78169467     -3.83422687     -0.95682769
  H       10.03805354     -4.14130011     -0.92914062
  C       11.73197574     -1.54880567     -2.55369666
  H       11.66136114     -0.79169146     -1.76421246
  H       12.73697775     -1.98281605     -2.50008005
  H       11.64092277     -1.03583108     -3.51841120



