%Mem=256MB 
%NProc=12 

#P HF/6-31G* SCF(Conver=6) NoSymm Test 
   Pop=mk IOp(6/33=2) GFInput GFPrint 

MEP - Input generated by R.E.D.-III.x MOLECULE 

0 1 
  O        5.54925184      4.53529490      0.00000000
  H        5.21892655      4.59785122     -0.90735670
  O        0.00000000      0.00000000      0.00000000
  H       -0.15590108     -0.10068920     -0.94959268
  C        8.72464132      1.27547618     -0.13406408
  C        7.69723259      2.29594870      0.42296005
  H        7.57908801      2.03103105      1.48776481
  C        6.28644076      2.17929259     -0.17827411
  H        6.32170012      2.40604721     -1.25395412
  C        5.75371307      0.73092801      0.03054808
  H        5.62127701      0.62152265      1.11959584
  C        9.98273488      1.69254608      0.69016469
  H        9.74292118      1.37986836      1.71696786
  C        8.19405185     -0.13377101      0.17690619
  H        8.16750593     -0.26848302      1.26793042
  H        8.86419332     -0.90909197     -0.21812702
  C        4.33015195      0.50381164     -0.58972019
  C        8.45154738      3.64042391      0.39355010
  H        8.05266483      4.35321383      1.11911079
  H        8.35267822      4.11921975     -0.58628660
  C        6.78055169     -0.34694748     -0.39902497
  H        6.84703022     -0.38167943     -1.49131993
  H        6.42243209     -1.33447071     -0.08810760
  C        9.93485067      3.25219684      0.68062513
  H       10.59201588      3.66834184     -0.08813264
  H       10.28194862      3.65997460      1.63590174
  C        5.31791886      3.19058846      0.46415953
  H        5.53352000      3.25448388      1.54027690
  C       11.34495992      1.01328308      0.36315551
  H       11.11346708      0.00000000     -0.00000000
  C        8.95332430      1.43517120     -1.65345746
  H        8.03702201      1.27452941     -2.22743756
  H        9.32294861      2.43087244     -1.91318489
  H        9.68723279      0.70388156     -2.00912525
  C        3.40898206      1.67301596     -0.22306917
  C        3.72387412     -0.80140604      0.01476078
  H        3.87097457     -0.77624467      1.10336241
  H        4.28277977     -1.66780279     -0.35412478
  C        3.87158071      2.83111107      0.27024127
  H        3.16853885      3.61722902      0.54558091
  C        4.38887127      0.38045758     -2.13605084
  H        4.88715274     -0.54380067     -2.44427558
  H        3.38848579      0.36867918     -2.57642611
  H        4.92650783      1.22340100     -2.58087749
  C        1.91933761      1.47249781     -0.42946164
  H        1.36383916      2.33034068     -0.03802228
  H        1.69699515      1.41702122     -1.50746658
  C        2.22773051     -1.01277084     -0.26465015
  H        2.05403164     -1.15662562     -1.34146764
  H        1.87960924     -1.92486356      0.23327136
  C       12.19314648      1.70722021     -0.72973794
  H       11.54819436      2.07890394     -1.53303783
  H       12.67370368      2.59313556     -0.29437560
  C        1.40195907      0.17936456      0.21773020
  H        1.49532210      0.26453833      1.30726018
  C       12.16958338      0.84899148      1.65647915
  H       12.38329896      1.82567230      2.10848669
  H       13.12775392      0.35307174      1.47113885
  H       11.62778492      0.25105035      2.39771502
  C       13.25913521      0.79672436     -1.36344865
  H       13.96652781      0.45004654     -0.60054111
  H       12.76342499     -0.10850191     -1.74194246
  C       14.03009752      1.43824103     -2.53180167
  H       13.30883296      1.72086823     -3.31240111
  H       14.68131078      0.67516622     -2.98361500
  C       14.89626213      2.67243401     -2.20054900
  H       14.24521899      3.44383023     -1.76495957
  C       15.50197014      3.25530694     -3.48750802
  H       16.16969733      2.52931359     -3.96917181
  H       16.08806338      4.15758880     -3.27876622
  H       14.72282351      3.52137967     -4.21112032
  C       16.00129869      2.35693612     -1.17998251
  H       16.66776582      1.57083229     -1.55846095
  H       16.61400964      3.24340136     -0.98034282
  H       15.59457525      2.01630431     -0.22234185



