%Mem=256MB 
%NProc=12 

#P HF/6-31G* SCF(Conver=6) NoSymm Test 
   Pop=mk IOp(6/33=2) GFInput GFPrint 

MEP - Input generated by R.E.D.-III.x MOLECULE 

0 1 
  O        0.00000000      0.00000000      0.00000000
  H       -0.23005996      0.13720965      0.92980947
  O       -3.05555837      6.47998788      0.00000000
  H       -3.05604872      6.68031916      0.94658717
  C        4.27067477      1.55527278     -0.41993019
  C        2.84128605      1.06698543     -0.79536003
  H        2.73309036      1.30176060     -1.86875421
  C        1.68740572      1.81030595     -0.09851728
  H        1.73985769      1.63772111      0.98655533
  C        1.80037755      3.33378373     -0.38482459
  H        1.62231373      3.44638003     -1.46701573
  C        5.13379385      0.58429040     -1.29884702
  H        5.04419735      0.95063297     -2.33417318
  C        4.34250245      3.04939261     -0.79236341
  H        4.25045106      3.14428032     -1.88406909
  H        5.30787777      3.48931498     -0.52299422
  C        0.68121795      4.18084323      0.31545901
  C        2.93078920     -0.46366184     -0.69403689
  H        2.15651628     -0.96769595     -1.27686691
  H        2.79168883     -0.79046273      0.34197367
  C        3.22643910      3.86455986     -0.11204471
  H        3.41447391      3.88354252      0.96692165
  H        3.30203959      4.90422571     -0.44944051
  C        4.36457773     -0.77795020     -1.19867090
  H        4.88161013     -1.46044211     -0.51354301
  H        4.33524240     -1.28255456     -2.16915434
  C        0.31811339      1.28460548     -0.57176446
  H        0.37080116      1.07507297     -1.64963159
  C        6.64884678      0.43033335     -1.00784776
  H        6.74502350     -0.00000000      0.00000000
  C        4.58517285      1.34792541      1.07988668
  H        3.85909509      1.84369576      1.72949568
  H        4.59117436      0.28876251      1.35344598
  H        5.57060579      1.75444703      1.32947358
  C       -0.68202951      3.50952340      0.11583479
  C        0.63147708      5.59101234     -0.35195887
  H        0.64142804      5.45523980     -1.44225579
  H        1.54130458      6.14597059     -0.10011068
  C       -0.80880903      2.24395632     -0.30934989
  H       -1.80351071      1.82666328     -0.46591692
  C        0.94444032      4.33642681      1.83731650
  H        1.81823232      4.96685604      2.02869299
  H        0.09557645      4.79964043      2.34699298
  H        1.11359454      3.36492788      2.31173386
  C       -1.91502524      4.34293699      0.41043504
  H       -2.81942610      3.79291976      0.13249599
  H       -1.98299371      4.53652257      1.49330140
  C       -0.59444332      6.44091865      0.01655226
  H       -0.57995705      6.69361671      1.08722659
  H       -0.56898651      7.39067345     -0.52967390
  C        7.30663795     -0.57102548     -2.00656142
  H        6.53080858     -1.12934747     -2.54024878
  H        7.84566235     -0.00345266     -2.77877233
  C       -1.89400888      5.70278892     -0.30318472
  H       -1.95700393      5.53780960     -1.38570576
  C        7.41575850      1.76600446     -1.02618466
  H        7.24129266      2.30164928     -1.96765066
  H        8.49336185      1.59693337     -0.94160857
  H        7.12536624      2.42816911     -0.20650100
  C        8.26160398     -1.60491723     -1.37851514
  H        7.70007161     -2.18872586     -0.63721500
  H        8.56092536     -2.31621347     -2.16194623
  C        9.53313218     -1.03082231     -0.73512886
  H        9.26856223     -0.38923425      0.11773398
  H       10.03113832     -0.37825871     -1.46681093
  C       10.55197761     -2.08530285     -0.25461525
  H       10.77752475     -2.74204485     -1.10918549
  C       10.00224434     -2.96311504      0.88156890
  H        9.73342954     -2.34899427      1.75109751
  H       10.75181593     -3.69203669      1.21015101
  H        9.11104540     -3.52149079      0.57854702
  C       11.86411847     -1.41036528      0.17562717
  H       11.69715098     -0.73917515      1.02798058
  H       12.61217734     -2.15152906      0.47943344
  H       12.29310235     -0.81437540     -0.63811113



