%Mem=256MB 
%NProc=12 

#P HF/6-31G* SCF(Conver=6) NoSymm Test 
   Pop=mk IOp(6/33=2) GFInput GFPrint 

MEP - Input generated by R.E.D.-III.x MOLECULE 

0 1 
  O        0.00000000      0.00000000      0.00000000
  H       -0.22571027      0.13984455      0.93048910
  O       -2.97501356      6.51819806      0.00000000
  H       -2.97085264      6.72047959      0.94616442
  C        4.28793949      1.50264740     -0.42511588
  C        2.85263967      1.03198585     -0.80011690
  H        2.74722733      1.27187362     -1.87252530
  C        1.70917202      1.78948355     -0.10177118
  H        1.76133933      1.61770794      0.98351207
  C        1.84038871      3.31122426     -0.39072426
  H        1.66059246      3.42407736     -1.47261317
  C        5.13391784      0.51690900     -1.30346227
  H        5.02186510      0.87360083     -2.33813138
  C        4.37919813      2.99430261     -0.80153217
  H        4.28921575      3.08827763     -1.89346048
  H        5.35013061      3.42200547     -0.53179559
  C        0.73332433      4.17299255      0.31101964
  C        2.91998734     -0.50123879     -0.70454240
  H        2.15274363     -0.98977042     -1.30964522
  H        2.74952028     -0.83245623      0.32525774
  C        3.27354764      3.82562607     -0.12314141
  H        3.46381849      3.84743452      0.95532399
  H        3.36101528      4.86273833     -0.46549939
  C        4.36239385     -0.83680923     -1.17238952
  H        4.86151123     -1.49089624     -0.44751516
  H        4.36154848     -1.37917147     -2.12344608
  C        0.33266016      1.28057570     -0.57227796
  H        0.38074223      1.07053163     -1.65027519
  C        6.65137606      0.36389974     -1.03186727
  H        6.76354890     -0.00000000     -0.00000000
  C        4.60406693      1.29752597      1.07393146
  H        3.89292206      1.81401855      1.72395540
  H        4.58772482      0.24023565      1.35442211
  H        5.60006866      1.68412079      1.31489267
  C       -0.63856197      3.51841007      0.11492162
  C        0.70007348      5.58312193     -0.35735457
  H        0.70678273      5.44647440     -1.44757185
  H        1.61701610      6.12695631     -0.10707579
  C       -0.78186064      2.25383530     -0.30798357
  H       -1.78196968      1.84861913     -0.46181033
  C        1.00126096      4.32652550      1.83225437
  H        1.88436780      4.94454077      2.02132446
  H        0.15986930      4.80255804      2.34250411
  H        1.15714631      3.35322218      2.30753892
  C       -1.86032795      4.36768019      0.41122995
  H       -2.77226674      3.82878916      0.13613556
  H       -1.92324558      4.56364889      1.49394058
  C       -0.51456012      6.44856659      0.01220929
  H       -0.49509773      6.70243721      1.08255814
  H       -0.47825516      7.39725805     -0.53524953
  C        7.29967837     -0.72629220     -1.92697370
  H        8.34480313     -0.84024188     -1.60490637
  H        6.82066631     -1.69290922     -1.72746937
  C       -1.82377749      5.72622872     -0.30427589
  H       -1.89077733      5.56060672     -1.38646426
  C        7.44076531      1.68237612     -1.13885394
  H        7.24594599      2.20078255     -2.08437418
  H        8.51856755      1.48835899     -1.08341649
  H        7.19482674      2.37397313     -0.32903412
  C        7.28348326     -0.47325983     -3.44393515
  H        6.24704650     -0.39014954     -3.79313861
  H        7.76254088      0.48868010     -3.66280088
  C        7.99850177     -1.59262373     -4.21866967
  H        7.51883011     -2.55132061     -3.97330464
  H        9.03178866     -1.66932817     -3.85008830
  C        8.04202149     -1.45231155     -5.75825345
  H        8.58814403     -2.33389144     -6.12551450
  C        8.82611291     -0.21223066     -6.21887468
  H        8.31129037      0.71623419     -5.94604881
  H        8.94724955     -0.20999709     -7.30818987
  H        9.82675323     -0.18371534     -5.77160436
  C        6.64383150     -1.49018137     -6.39725764
  H        6.05265882     -0.60668239     -6.12988842
  H        6.71545940     -1.51582059     -7.49064636
  H        6.08314348     -2.37682540     -6.07858760



