%Mem=256MB 
%NProc=12 

#P HF/6-31G* SCF(Conver=6) NoSymm Test 
   Pop=mk IOp(6/33=2) GFInput GFPrint 

MEP - Input generated by R.E.D.-III.x MOLECULE 

0 1 
  O        0.00000000      0.00000000      0.00000000
  H       -0.22859768      0.13908457      0.92989651
  O       -2.97702553      6.51705375      0.00000000
  H       -2.97555991      6.71748632      0.94656504
  C        4.28866310      1.50524963     -0.41482804
  C        2.85448898      1.03388095     -0.79322079
  H        2.75098160      1.27458207     -1.86558586
  C        1.70930202      1.78996945     -0.09636242
  H        1.75943246      1.61681641      0.98874644
  C        1.84022025      3.31211620     -0.38326749
  H        1.66263257      3.42607427     -1.46540386
  C        5.13606363      0.52055444     -1.29334304
  H        5.01868266      0.87484294     -2.32859428
  C        4.38015903      2.99752221     -0.78851134
  H        4.29253968      3.09312034     -1.88053099
  H        5.35016406      3.42500193     -0.51557536
  C        0.73129043      4.17278293      0.31692875
  C        2.92233608     -0.49950598     -0.69814015
  H        2.15974052     -0.98780214     -1.30934241
  H        2.74426067     -0.83166333      0.33000943
  C        3.27238654      3.82731691     -0.11187861
  H        3.46004962      3.84827056      0.96708442
  H        3.35983184      4.86485089     -0.45295043
  C        4.36828466     -0.83448673     -1.15582256
  H        4.86553735     -1.47985098     -0.42191529
  H        4.37488444     -1.38626456     -2.10117302
  C        0.33379929      1.28113268     -0.57034230
  H        0.38434923      1.07211313     -1.64842463
  C        6.65495125      0.37438945     -1.02838305
  H        6.76852530     -0.00000000     -0.00000000
  C        4.60138445      1.29704317      1.08457814
  H        3.88819847      1.81166503      1.73378171
  H        4.58452134      0.23924671      1.36289385
  H        5.59644401      1.68357388      1.32911256
  C       -0.63979222      3.51787370      0.11722382
  C        0.69891677      5.58337706     -0.35064815
  H        0.70726238      5.44734723     -1.44093889
  H        1.61548540      6.12706487     -0.09871290
  C       -0.78161359      2.25381044     -0.30763844
  H       -1.78121234      1.84844359     -0.46434938
  C        0.99643011      4.32514762      1.83879121
  H        1.87783125      4.94498515      2.02993959
  H        0.15325905      4.79854532      2.34852299
  H        1.15399358      3.35163628      2.31315536
  C       -1.86260804      4.36642132      0.41132496
  H       -2.77363174      3.82749599      0.13326317
  H       -1.92851131      4.56115530      1.49409538
  C       -0.51652751      6.44823007      0.01759968
  H       -0.49914368      6.70057688      1.08830738
  H       -0.47938249      7.39761748     -0.52859034
  C        7.29843728     -0.73076283     -1.91528120
  H        8.36746617     -0.78074796     -1.66311239
  H        6.87850801     -1.69329074     -1.59997632
  C       -1.82484236      5.72580835     -0.30254150
  H       -1.88929172      5.56136281     -1.38505943
  C        7.43131032      1.70408217     -1.09859051
  H        7.19818831      2.27456445     -2.00295445
  H        8.51159465      1.52019619     -1.09228677
  H        7.20796216      2.34573393     -0.24162874
  C        7.16099154     -0.65568642     -3.45254666
  H        7.42902529     -1.64764938     -3.83829066
  H        6.10857238     -0.50946150     -3.72394821
  C        8.03404262      0.39508026     -4.16129710
  H        9.06006432      0.32177960     -3.77237998
  H        7.68456222      1.40176445     -3.90460610
  C        8.09445795      0.29502621     -5.70506649
  H        8.72400206      1.13473092     -6.03504207
  C        6.71678018      0.47746526     -6.36364859
  H        6.04516742     -0.35728561     -6.13210715
  H        6.80925382      0.52946172     -7.45451968
  H        6.23169542      1.40086235     -6.02552478
  C        8.77513955     -0.99349731     -6.19665243
  H        8.17943979     -1.88386263     -5.96505006
  H        8.91303094     -0.96913133     -7.28371081
  H        9.76247447     -1.12265510     -5.73782004



