%Mem=256MB 
%NProc=12 

#P HF/6-31G* SCF(Conver=6) NoSymm Test 
   Pop=mk IOp(6/33=2) GFInput GFPrint 

MEP - Input generated by R.E.D.-III.x MOLECULE 

0 1 
  O        6.70307408      0.90240859      0.00000000
  H        7.05231789     -0.00000000      0.00000000
  O        9.78074145      0.33921533     -6.44580347
  H        9.90547342     -0.61842541     -6.50519747
  C        2.42717844      0.52561405     -1.54913825
  C        3.79083571      1.15395870     -1.13943775
  H        3.75857013      2.18370530     -1.53604450
  C        5.03123886      0.51053048     -1.78473467
  H        5.11932327     -0.53476336     -1.45356843
  C        4.89324676      0.55206933     -3.33251968
  H        4.93093571      1.61974243     -3.60491262
  C        1.45332951      1.41875849     -0.70488627
  H        1.43494036      2.39520204     -1.21138776
  C        2.31664930      0.66263855     -3.08017045
  H        2.26362247      1.73095064     -3.33538179
  H        1.39846663      0.20574383     -3.46303489
  C        6.10008793     -0.11491159     -4.08041831
  C        3.70629954      1.27713881      0.39096300
  H        4.37715754      2.04449808      0.78413593
  H        4.00455162      0.33941223      0.87155361
  C        3.51840414      0.02284983     -3.80144114
  H        3.47255457     -1.06270249     -3.66273116
  H        3.40711324      0.19395699     -4.87791585
  C        2.20840696      1.59262731      0.65327786
  H        1.79642515      0.91195949      1.40783164
  H        2.07300651      2.60471171      1.04827131
  C        6.32327612      1.23026436     -1.35140709
  H        6.12923123      2.31128304     -1.30391319
  C       -0.01776152      0.97265364     -0.51321041
  H        0.00000000      0.00000000      0.00000000
  C        2.30759321     -0.95549781     -1.12350556
  H        3.10838360     -1.57374942     -1.53765789
  H        2.33983618     -1.07248066     -0.03627013
  H        1.35995191     -1.38148184     -1.46999097
  C        7.42085694      0.35672899     -3.46225209
  C        6.07282099      0.33685171     -5.57422559
  H        5.91962226      1.42455485     -5.60113487
  H        5.20788087     -0.11087867     -6.07482100
  C        7.48200207      0.97658407     -2.27457662
  H        8.44483833      1.32046469     -1.89672466
  C        6.03829813     -1.66416375     -4.00614672
  H        5.20028436     -2.05831868     -4.58919260
  H        6.94892594     -2.12209786     -4.40105909
  H        5.92721972     -2.00739904     -2.97301220
  C        8.68763408      0.10424066     -4.25805130
  H        9.54443945      0.57489602     -3.76603169
  H        8.89672460     -0.97734353     -4.29092004
  C        7.34251647      0.00923473     -6.37513030
  H        7.46948075     -1.07975529     -6.46709588
  H        7.25311803      0.40118536     -7.39465364
  C       -0.79998242      1.92397902      0.43185052
  H       -1.79552588      1.48567158      0.59240979
  H       -0.31809028      1.93474190      1.41737904
  C        8.58394948      0.60048253     -5.70785578
  H        8.50428306      1.69441792     -5.70491868
  C       -0.78806826      0.77799183     -1.83294275
  H       -0.70946780      1.65429353     -2.48610811
  H       -1.85276676      0.60843288     -1.63283652
  H       -0.42376889     -0.08472216     -2.39651071
  C       -0.97907594      3.37557289     -0.04381990
  H        0.00366537      3.84385768     -0.17791240
  H       -1.46366036      3.38447055     -1.02760031
  C       -1.81211433      4.20432058      0.94797876
  H       -1.32336485      4.16905437      1.93249363
  H       -2.78905078      3.71652078      1.07861120
  C       -2.05560339      5.68672009      0.58041843
  H       -2.66278103      6.10363401      1.39762856
  C       -2.86887095      5.85088763     -0.71434674
  H       -2.30423771      5.51545495     -1.59195702
  H       -3.13261818      6.90198059     -0.87843968
  H       -3.80097761      5.27481828     -0.67607913
  C       -0.75497912      6.50511173      0.52289907
  H       -0.11629519      6.19182104     -0.31105072
  H       -0.97074195      7.57090819      0.38575209
  H       -0.17484093      6.39820466      1.44705791



