%Mem=256MB 
%NProc=12 

#P HF/6-31G* SCF(Conver=6) NoSymm Test 
   Pop=mk IOp(6/33=2) GFInput GFPrint 

MEP - Input generated by R.E.D.-III.x MOLECULE 

0 1 
  O        7.13691036      0.87434826      0.00000000
  H        7.55143980      0.00000000     -0.00000000
  O        8.68741319     -0.15983004     -6.92013981
  H        8.86864589     -1.11021682     -6.92934925
  C        2.68052320      0.05879159     -0.46722681
  C        4.03648523      0.81287323     -0.42879651
  H        3.83041910      1.79579022     -0.88590508
  C        5.14282469      0.19127665     -1.29797935
  H        5.39569108     -0.80930512     -0.91773947
  C        4.64359330      0.07790965     -2.76863975
  H        4.53890690      1.11644729     -3.12366474
  C        1.85296398      0.96454827      0.49765721
  H        1.74582988      1.90706881     -0.05854492
  C        2.19245659      0.05694857     -1.92501419
  H        1.99337049      1.09371608     -2.23292011
  H        1.24453091     -0.48795917     -2.02826331
  C        5.69443636     -0.58836836     -3.72495902
  C        4.27685347      1.07425087      1.07217340
  H        4.91910209      1.94185263      1.24093820
  H        4.78834914      0.22485809      1.53672500
  C        3.23801431     -0.56590036     -2.87026584
  H        3.30486583     -1.63877716     -2.66225704
  H        2.87276305     -0.48095091     -3.89957922
  C        2.84522910      1.25767923      1.66460412
  H        2.69338266      0.57031314      2.50132040
  H        2.69579656      2.26648820      2.06376324
  C        6.43329947      1.03131435     -1.24793929
  H        6.16370705      2.09709393     -1.25335801
  C        0.39405138      0.55073893      0.86640539
  H        0.00000000      0.00000000      0.00000000
  C        2.79730255     -1.38856067      0.05897172
  H        3.51446695     -1.98083907     -0.51534902
  H        3.11599165     -1.42365332      1.10431825
  H        1.83155414     -1.89921188     -0.01223690
  C        7.08177808      0.01429759     -3.47608186
  C        5.29020222     -0.28442442     -5.20170324
  H        5.05167456      0.78535066     -5.27912646
  H        4.37062285     -0.82611861     -5.44677586
  C        7.36640345      0.75124204     -2.39237417
  H        8.36059986      1.18437587     -2.28270096
  C        5.77127312     -2.12445855     -3.51432800
  H        4.85578885     -2.61974723     -3.85214299
  H        6.60066273     -2.56578735     -4.07308289
  H        5.92508839     -2.37285486     -2.45975192
  C        8.14733676     -0.24379837     -4.52474344
  H        9.05580219      0.31867607     -4.28806787
  H        8.42517568     -1.31024746     -4.51858783
  C        6.36321914     -0.61620560     -6.25036337
  H        6.54837921     -1.70025354     -6.28173160
  H        6.01210415     -0.32956266     -7.24815606
  C        0.26024213     -0.36161952      2.10940819
  H        0.94620796     -1.21020080      2.02115902
  H        0.59269205      0.19973600      2.99232900
  C        7.67589585      0.10434501     -5.94438082
  H        7.51573116      1.18739218     -6.01074816
  C       -0.47436796      1.81614113      1.02489014
  H       -0.13138962      2.42347255      1.87216655
  H       -1.52798111      1.57577301      1.19588210
  H       -0.42390138      2.44094374      0.12644668
  C       -1.15723878     -0.89272886      2.41661520
  H       -1.10311529     -1.46704928      3.35027451
  H       -1.82172306     -0.04891143      2.63862827
  C       -1.82847170     -1.75344739      1.32997987
  H       -1.93871016     -1.16002149      0.41224381
  H       -2.85302618     -1.98221431      1.65931514
  C       -1.13491639     -3.08458813      0.97080054
  H       -0.10912925     -2.86234403      0.64453344
  C       -1.85691306     -3.75859792     -0.20714109
  H       -2.89140021     -4.00913263      0.06082299
  H       -1.35657160     -4.68789532     -0.50277323
  H       -1.89123361     -3.10191076     -1.08415215
  C       -1.04741043     -4.04449996      2.16814456
  H       -2.04890647     -4.28208766      2.55000692
  H       -0.57045883     -4.98792066      1.87896877
  H       -0.46706970     -3.62289001      2.99504088



