%Mem=256MB 
%NProc=12 

#P HF/6-31G* SCF(Conver=6) NoSymm Test 
   Pop=mk IOp(6/33=2) GFInput GFPrint 

MEP - Input generated by R.E.D.-III.x MOLECULE 

0 1 
  O        0.00000000      0.00000000      0.00000000
  H        0.96763242      0.00000000      0.00000000
  O        1.63604143     -2.66694423      6.44580347
  H        2.57415086     -2.43763102      6.50519747
  C       -1.19188594      4.12367137      1.54913825
  C       -1.28569713      2.62514622      1.13943775
  H       -2.25767854      2.28357447      1.53604450
  C       -0.23794567      1.70058323      1.78473467
  H        0.76868149      1.99571005      1.45356843
  C       -0.32648952      1.81428143      3.33251968
  H       -1.30859256      1.39378181      3.60491262
  C       -2.37631498      4.70951827      0.70488627
  H       -3.29357790      4.37424391      1.21138776
  C       -1.35956708      4.17729451      3.08017045
  H       -2.37500773      3.84116528      3.33538179
  H       -1.26486573      5.19849177      3.46303489
  C        0.73111367      0.92951894      4.08041831
  C       -1.43108552      2.65952526     -0.39096300
  H       -1.90459031      1.75692683     -0.78413593
  H       -0.44891998      2.71982705     -0.87155361
  C       -0.32915899      3.28746112      3.80144114
  H        0.66667273      3.72202435      3.66273116
  H       -0.52890036      3.32949335      4.87791585
  C       -2.26593689      3.94258347     -0.65327786
  H       -1.77984488      4.57246619     -1.40783164
  H       -3.25867070      3.70356947     -1.04827131
  C       -0.44283546      0.23586574      1.35140709
  H       -1.52102331      0.02666304      1.30391319
  C       -2.49123527      6.24246044      0.51321041
  H       -1.57773332      6.57695225     -0.00000000
  C        0.14622927      4.76976784      1.12350556
  H        1.01183343      4.24609835      1.53765789
  H        0.26696414      4.78192039      0.03627013
  H        0.20147109      5.80728158      1.46999097
  C        0.76796433     -0.47245026      3.46225209
  C        0.29996039      0.79189475      5.57422559
  H       -0.76971891      0.54218656      5.60113487
  H        0.40533175      1.76013067      6.07482100
  C        0.21195982     -0.75319577      2.27457662
  H        0.23877143     -1.77524698      1.89672466
  C        2.15363601      1.54630933      4.00614672
  H        2.21876164      2.47009710      4.58919260
  H        2.90937217      0.86234331      4.40105909
  H        2.43364423      1.77378302      2.97301220
  C        1.46064649     -1.56270991      4.25805130
  H        1.33095938     -2.53163362      3.76603169
  H        2.54479209     -1.36733457      4.29092004
  C        1.06376041     -0.27397063      6.37513030
  H        2.12517114      0.00066814      6.46709588
  H        0.66596321     -0.33206335      7.39465364
  C       -3.66075995      6.62859711     -0.43185052
  H       -3.61131452      7.71523197     -0.59240979
  H       -3.49686989      6.17530258     -1.41737904
  C        0.96043162     -1.64512089      5.70785578
  H       -0.08852010     -1.96565429      5.70491868
  C       -2.58771857      7.03110273      1.83294275
  H       -3.37658368      6.64152021      2.48610811
  H       -2.81386634      8.08523285      1.63283652
  H       -1.65167117      7.00273519      2.39651071
  C       -5.07914781      6.27170057      0.04381990
  H       -5.16117058      5.18618530      0.17791240
  H       -5.26234490      6.72040990      1.02760031
  C       -6.15269859      6.74947083     -0.94797876
  H       -5.94340707      6.30639429     -1.93249363
  H       -6.05038111      7.83661599     -1.07861120
  C       -7.62305765      6.44151066     -0.58041843
  H       -8.23101552      6.85728601     -1.39762856
  C       -8.06968889      7.14070709      0.71434674
  H       -7.55307536      6.73519969      1.59195702
  H       -9.14512557      7.00730938      0.87843968
  H       -7.86887147      8.21790302      0.67607913
  C       -7.91685584      4.93317682     -0.52289907
  H       -7.39416499      4.45061854      0.31105072
  H       -8.98868611      4.74972225     -0.38575209
  H       -7.60776789      4.43072874     -1.44705791



