%Mem=256MB 
%NProc=48 

#P HF/6-31G* SCF(Conver=6) NoSymm Test 
   Pop=chelpg IOp(6/33=2) GFInput GFPrint 

MEP - Input generated by R.E.D.-III.x MOLECULE 

0 1 
  O        6.84192699      0.78748222      0.00000000
  H        7.40232295     -0.00000000      0.00000000
  O       10.39907743     -2.03907915      4.94368426
  H       10.08004762     -1.93166524      5.85079377
  C        2.77592063     -0.57805029      0.72758307
  C        4.08620137      0.22587833      0.50033108
  H        4.59150614     -0.27028803     -0.34045697
  C        5.08157462      0.18838511      1.66630754
  H        4.62936981      0.67629207      2.54201142
  C        5.43869719     -1.27613154      2.02692686
  H        6.01945184     -1.66328959      1.17313360
  C        2.04022892     -0.27007662     -0.62263626
  H        2.57085170     -0.85484850     -1.38836507
  C        3.19909806     -2.04265045      0.96067533
  H        3.67241094     -2.42189986      0.04354633
  H        2.33798951     -2.68957068      1.15719441
  C        6.38975551     -1.37057786      3.27130608
  C        3.61825369      1.58918176     -0.02976202
  H        4.39261163      2.08063365     -0.62529432
  H        3.36753488      2.26757668      0.79591492
  C        4.18308559     -2.17285921      2.14154792
  H        3.64430887     -1.94046629      3.06592721
  H        4.48729656     -3.22251056      2.22692479
  C        2.35509114      1.24297037     -0.86667240
  H        1.50373384      1.86210286     -0.55972685
  H        2.51193391      1.44291228     -1.93126571
  C        6.35846343      0.99460807      1.34835704
  H        6.10925844      2.06178715      1.36808704
  C        0.53120945     -0.59087100     -0.76058107
  H        0.00000000      0.00000000      0.00000000
  C        1.94889116     -0.05107431      1.92231802
  H        2.51676750     -0.05352970      2.85629379
  H        1.60275949      0.97406961      1.75929084
  H        1.06157258     -0.67283946      2.08357886
  C        7.50271422     -0.31857735      3.17569612
  C        7.05171899     -2.78330463      3.28763597
  H        7.43457176     -2.99520936      2.27957779
  H        6.28649533     -3.53954832      3.49283856
  C        7.46348492      0.72167671      2.32676254
  H        8.30207657      1.41685832      2.29862323
  C        5.61771006     -1.14380046      4.59967317
  H        4.93521397     -1.97276818      4.80951218
  H        6.29735481     -1.06352701      5.45166086
  H        5.03374049     -0.21914689      4.56555889
  C        8.68674902     -0.48745559      4.10998303
  H        9.45736809      0.25555498      3.88240870
  H        8.37024041     -0.30503569      5.14937804
  C        8.20738283     -2.94747385      4.28654099
  H        7.83947718     -2.85581454      5.31915084
  H        8.64149482     -3.94966586      4.19635053
  C       -0.04590377     -0.12349247     -2.12381234
  H       -1.13084704     -0.30093280     -2.10232645
  H        0.07504894      0.96303951     -2.21664258
  C        9.29283498     -1.89792155      4.04888140
  H        9.73116534     -2.05356045      3.05536007
  C        0.18514293     -2.07100111     -0.51138991
  H        0.80188283     -2.74347431     -1.11812270
  H       -0.86415823     -2.26642439     -0.76273953
  H        0.32514296     -2.35290024      0.53527625
  C        0.53144602     -0.79193814     -3.38292339
  H        1.60924716     -0.59757124     -3.44241408
  H        0.41629789     -1.88002959     -3.30839876
  C       -0.15317026     -0.28818564     -4.66431295
  H       -0.04696720      0.80534445     -4.71261569
  H       -1.23259346     -0.48321039     -4.58510933
  C        0.35074118     -0.88372910     -5.99968158
  H       -0.25378450     -0.41030079     -6.78757706
  C        0.11385703     -2.39986469     -6.09961901
  H        0.73330697     -2.95390191     -5.38489237
  H        0.36309775     -2.76817666     -7.10137563
  H       -0.93412372     -2.65415366     -5.90149810
  C        1.82019896     -0.53427650     -6.28817805
  H        2.49907929     -1.02167010     -5.57893174
  H        2.10867920     -0.86208259     -7.29347687
  H        1.99289702      0.54669215     -6.22722600



