%Mem=256MB 
%NProc=48 

#P HF/6-31G* SCF(Conver=6) NoSymm Test 
   Pop=chelpg IOp(6/33=2) GFInput GFPrint 

MEP - Input generated by R.E.D.-III.x MOLECULE 

0 1 
  O        0.00000000      0.00000000      0.00000000
  H        0.96654164      0.00000000     -0.00000000
  O        4.35758090     -1.30368145     -4.94230352
  H        4.08182217     -1.11557782     -5.85045798
  C       -1.23853464      4.10157992     -0.75592124
  C       -1.13536779      2.56889068     -0.51925773
  H       -0.43960557      2.44828509      0.32333924
  C       -0.53014139      1.76999774     -1.67992843
  H       -1.19120412      1.84939325     -2.55518797
  C        0.86974920      2.32286630     -2.04845023
  H        1.52423842      2.08075308     -1.19452954
  C       -1.91241638      4.53708464      0.59262891
  H       -1.12514677      4.47238174      1.36051802
  C        0.20107987      4.60044089     -0.99823345
  H        0.78675489      4.43910052     -0.08175965
  H        0.23261169      5.67538459     -1.20203780
  C        1.49349589      1.59176417     -3.28870533
  C       -2.51837260      2.16767826      0.01061749
  H       -2.47943831      1.24428811      0.59510477
  H       -3.22134328      1.99798087     -0.81503048
  C        0.87240926      3.86446347     -2.17601345
  H        0.36698290      4.16103044     -3.10090960
  H        1.90364712      4.22445022     -2.26842038
  C       -2.94752579      3.39140280      0.86570972
  H       -3.95953403      3.72046078      0.60037259
  H       -2.97509473      3.13529850      1.92885488
  C       -0.44898269      0.26436497     -1.35023745
  H       -1.46362327     -0.14991237     -1.36649014
  C       -2.54019952      5.95006942      0.71522077
  H       -3.37495679      6.00910865      0.00000000
  C       -2.15306916      4.45913514     -1.95006292
  H       -1.82888335      3.98514893     -2.88011385
  H       -3.18886152      4.15200770     -1.77670650
  H       -2.15969713      5.54010222     -2.12488238
  C        1.28160969      0.07607611     -3.17863086
  C        3.02815563      1.87150270     -3.31369690
  H        3.42659231      1.69285781     -2.30524214
  H        3.19961186      2.93132285     -3.53040352
  C        0.41241816     -0.48682605     -2.32311040
  H        0.33157597     -1.57279435     -2.28500407
  C        0.85557680      2.07681709     -4.61910505
  H        1.13462604      3.11136105     -4.84040157
  H        1.18033455      1.46791693     -5.46645192
  H       -0.23628098      2.01724426     -4.57976921
  C        2.10321049     -0.79983374     -4.10671310
  H        1.94516358     -1.85620453     -3.86834663
  H        1.76806498     -0.65784298     -5.14661916
  C        3.82862247      1.01507628     -4.30682128
  H        3.53710429      1.25124237     -5.34090164
  H        4.89712093      1.24351465     -4.22256048
  C       -3.13672931      6.15586143      2.13158761
  H       -3.66834984      5.24862695      2.43373241
  H       -2.30907876      6.27586398      2.84809642
  C        3.60389063     -0.47532992     -4.05337854
  H        3.98806749     -0.73226853     -3.05847269
  C       -1.55018955      7.08237082      0.38742869
  H       -0.64211309      6.99521850      0.99710310
  H       -1.98892290      8.06454407      0.58769454
  H       -1.24843352      7.07800097     -0.66246840
  C       -4.09937180      7.34762982      2.26269650
  H       -3.60354348      8.26750306      1.93010539
  H       -4.94583451      7.20166317      1.57784299
  C       -4.61635253      7.59335405      3.69277564
  H       -5.21480484      8.51659039      3.69435801
  H       -3.75354021      7.79198216      4.34502108
  C       -5.46318765      6.47332720      4.33431446
  H       -4.86120760      5.55374482      4.35609736
  C       -6.74563118      6.17917377      3.54000169
  H       -7.37400843      7.07668141      3.46918677
  H       -7.33795354      5.39729466      4.02880680
  H       -6.53232770      5.84106007      2.52078609
  C       -5.80187534      6.83420108      5.78964206
  H       -6.41071494      7.74646067      5.83488088
  H       -6.36826662      6.03261415      6.27737322
  H       -4.89469489      7.01045754      6.37905188



