%Mem=256MB 
%NProc=48 

#P HF/6-31G* SCF(Conver=6) NoSymm Test 
   Pop=chelpg IOp(6/33=2) GFInput GFPrint 

MEP - Input generated by R.E.D.-III.x MOLECULE 

0 1 
  O        0.00000000      0.00000000      0.00000000
  H        0.96655533      0.00000000     -0.00000000
  O        4.35715942     -1.30563843     -4.93981040
  H        4.08428953     -1.11338674     -5.84796497
  C       -1.23087872      4.10520178     -0.75242957
  C       -1.13218400      2.57238350     -0.51648963
  H       -0.43841218      2.44880990      0.32732208
  C       -0.52711627      1.77331751     -1.67729061
  H       -1.18721044      1.85511170     -2.55295056
  C        0.87436739      2.32407864     -2.04357594
  H        1.52711903      2.07976750     -1.18896152
  C       -1.90429988      4.54209865      0.59508933
  H       -1.11822843      4.47606282      1.36418091
  C        0.20947667      4.60226946     -0.99229331
  H        0.79374476      4.43937121     -0.07516779
  H        0.24202697      5.67753333     -1.19480850
  C        1.49854825      1.59348574     -3.28388155
  C       -2.51794063      2.17532606      0.01035338
  H       -2.48366293      1.25075757      0.59329735
  H       -3.21992891      2.00963097     -0.81692247
  C        0.88094997      3.86605300     -2.16957322
  H        0.37782658      4.16490013     -3.09499337
  H        1.91327867      4.22343328     -2.25995099
  C       -2.94377855      3.39935274      0.86702844
  H       -3.95479346      3.73249295      0.60366159
  H       -2.97246084      3.14009255      1.92931186
  C       -0.44893381      0.26721360     -1.34967938
  H       -1.46439096     -0.14504532     -1.36608644
  C       -2.53457643      5.95323956      0.71581785
  H       -3.36863465      6.00029724      0.00000000
  C       -2.14301485      4.46452439     -1.94821272
  H       -1.81887346      3.98900123     -2.87757686
  H       -3.17986258      4.16019640     -1.77630412
  H       -2.14652440      5.54524722     -2.12414854
  C        1.28215006      0.07810777     -3.17769253
  C        3.03410258      1.86861404     -3.30456659
  H        3.42972556      1.68539935     -2.29581545
  H        3.20935206      2.92858676     -3.51745129
  C        0.41074119     -0.48427525     -2.32400977
  H        0.32704067     -1.57010015     -2.28820487
  C        0.86500366      2.08411196     -4.61440425
  H        1.14801750      3.11828048     -4.83228647
  H        1.18920919      1.47668357     -5.46302723
  H       -0.22711415      2.02814829     -4.57724848
  C        2.10275649     -0.79771402     -4.10667071
  H        1.94154004     -1.85426720     -3.87123697
  H        1.76976853     -0.65234176     -5.14674158
  C        3.83389137      1.01289604     -4.29871200
  H        3.54486523      1.25295553     -5.33259348
  H        4.90291213      1.23792323     -4.21188375
  C       -3.13004388      6.17632170      2.14016354
  H       -3.18718467      5.22244558      2.67432989
  H       -2.43730840      6.79967591      2.72366809
  C        3.60430916     -0.47757601     -4.04992072
  H        3.98586014     -0.73835283     -3.05500859
  C       -1.55527642      7.09187319      0.37428955
  H       -0.64046320      7.01096994      0.97451196
  H       -2.00227671      8.06696564      0.58992461
  H       -1.26442821      7.09298203     -0.67933317
  C       -4.53559851      6.80716126      2.18077192
  H       -5.22320890      6.15604528      1.62499941
  H       -4.88580048      6.79970183      3.22316920
  C       -4.63387207      8.24464081      1.64776921
  H       -4.38035965      8.26926481      0.57811181
  H       -3.87642175      8.85839711      2.15645415
  C       -6.00978950      8.91655069      1.83863908
  H       -6.26674528      8.84842404      2.90719214
  C       -7.12360207      8.21857008      1.04117538
  H       -6.89966570      8.23441238     -0.03358058
  H       -8.08473523      8.72478669      1.18653021
  H       -7.25348787      7.17376198      1.34007433
  C       -5.93824501     10.40670333      1.46896408
  H       -5.68200822     10.53462608      0.40931629
  H       -6.89883269     10.90598321      1.63992962
  H       -5.17802827     10.92964687      2.06054935



