%Mem=256MB 
%NProc=48 

#P HF/6-31G* SCF(Conver=6) NoSymm Test 
   Pop=chelpg IOp(6/33=2) GFInput GFPrint 

MEP - Input generated by R.E.D.-III.x MOLECULE 

0 1 
  O        6.85176542      0.78343411     -0.00000000
  H        7.41783007      0.00000000      0.00000000
  O       10.45890728     -1.99117076      4.93979925
  H       10.14448450     -1.87960334      5.84801774
  C        2.80038114     -0.61221669      0.75596909
  C        4.10361910      0.20125044      0.51926706
  H        4.60793413     -0.29221294     -0.32379352
  C        5.10628930      0.17693710      1.67948095
  H        4.65529457      0.66556552      2.55543294
  C        5.47779051     -1.28206527      2.04601533
  H        6.05728583     -1.66955458      1.19150719
  C        2.05209646     -0.31789883     -0.59151169
  H        2.56693266     -0.91510708     -1.36084257
  C        3.23949749     -2.07174102      0.99516183
  H        3.71242722     -2.45036465      0.07758825
  H        2.38723042     -2.72757113      1.19872697
  C        6.43570036     -1.36153067      3.28603151
  C        3.62046665      1.55822005     -0.00976873
  H        4.39118855      2.06470698     -0.59734706
  H        3.35137771      2.22888404      0.81637612
  C        4.22974099     -2.18715031      2.17215970
  H        3.69375969     -1.95299624      3.09776350
  H        4.54179246     -3.23409927      2.26230608
  C        2.37275607      1.19301954     -0.85982548
  H        1.51481398      1.81875487     -0.58543665
  H        2.55575779      1.37030974     -1.92365348
  C        6.37456482      0.99243642      1.35025577
  H        6.11679621      2.05763670      1.36688292
  C        0.53941180     -0.63624989     -0.71856170
  H        0.00000000      0.00000000      0.00000000
  C        1.97576093     -0.08286482      1.95162918
  H        2.54950479     -0.07204184      2.88195149
  H        1.61975748      0.93770389      1.78142744
  H        1.09454195     -0.70983944      2.12382674
  C        7.54044317     -0.30216247      3.17752529
  C        7.10728929     -2.76953262      3.30861341
  H        7.48607749     -2.98614433      2.30001080
  H        6.34829972     -3.52938585      3.52344655
  C        7.48778842      0.73306151      2.32316185
  H        8.32074004      1.43458104      2.28587994
  C        5.66916715     -1.13080158      4.61697290
  H        4.99367657     -1.96301479      4.83661766
  H        6.35300121     -1.03956744      5.46448718
  H        5.07847578     -0.21053058      4.57969395
  C        8.73131551     -0.45697227      4.10560367
  H        9.49556328      0.28959271      3.86836160
  H        8.41987583     -0.26958961      5.14567663
  C        8.26951632     -2.91878320      4.30212666
  H        7.90685728     -2.82214482      5.33615344
  H        8.70988567     -3.91865613      4.21665378
  C        0.03119381     -0.25630537     -2.13195088
  H        0.35707061      0.76303112     -2.36987772
  H        0.52344353     -0.91155153     -2.86528742
  C        9.34648500     -1.86371448      4.05064282
  H        9.77993073     -2.02342012      3.05562744
  C        0.19673403     -2.10280211     -0.40253438
  H        0.76662941     -2.78594215     -1.04518432
  H       -0.86625265     -2.30473984     -0.56430028
  H        0.41473946     -2.36292606      0.63555723
  C       -1.49501235     -0.31327935     -2.31657410
  H       -1.85264826     -1.34756165     -2.25557577
  H       -1.96958491      0.21791115     -1.47913718
  C       -1.99372186      0.32535774     -3.62620921
  H       -1.69668270      1.38410455     -3.63361819
  H       -3.09392579      0.31911116     -3.62405668
  C       -1.51121623     -0.32369435     -4.94099957
  H       -0.41205190     -0.30239582     -4.95158266
  C       -1.99891357      0.49522949     -6.14692014
  H       -3.09555219      0.50773509     -6.19349383
  H       -1.63153095      0.07369844     -7.08957851
  H       -1.65682686      1.53493841     -6.08849027
  C       -1.95583731     -1.78926414     -5.06972387
  H       -3.05050190     -1.86803811     -5.04034361
  H       -1.61796774     -2.21847190     -6.01988305
  H       -1.55521985     -2.41496889     -4.26553954



