%Mem=256MB 
%NProc=48 

#P HF/6-31G* SCF(Conver=6) NoSymm Test 
   Pop=chelpg IOp(6/33=2) GFInput GFPrint 

MEP - Input generated by R.E.D.-III.x MOLECULE 

0 1 
  O        0.00000000      0.00000000      0.00000000
  H        0.96652777     -0.00000000     -0.00000000
  O        4.36650274     -1.43534192     -4.89789466
  H        4.09145549     -1.27383334     -5.81137346
  C       -1.23938725      4.06615071     -0.89870092
  C       -1.14549658      2.54788457     -0.60060188
  H       -0.44691130      2.45464804      0.24230995
  C       -0.53757301      1.71432646     -1.73390500
  H       -1.19560410      1.76300607     -2.61346619
  C        0.86485287      2.26264823     -2.11209575
  H        1.51463809      2.03912743     -1.24964165
  C       -1.90129965      4.54303963      0.43241800
  H       -1.12191038      4.36877997      1.18798020
  C        0.19389162      4.57270965     -1.13316923
  H        0.76998576      4.44428510     -0.20546194
  H        0.20702273      5.64625519     -1.36480796
  C        1.49209471      1.49812387     -3.33058740
  C       -2.53444267      2.17933801     -0.04598362
  H       -2.48436902      1.31295251      0.61934624
  H       -3.22783695      1.92158763     -0.85681600
  C        0.88391214      3.80400966     -2.27927663
  H        0.40246908      4.08182999     -3.22215294
  H        1.92105717      4.14927372     -2.35866149
  C       -3.00578924      3.47180969      0.69235043
  H       -3.97525882      3.79646772      0.30466153
  H       -3.14341444      3.29943278      1.76479126
  C       -0.44925435      0.22037591     -1.35797298
  H       -1.46246300     -0.19796435     -1.36163185
  C       -2.29011324      6.04513488      0.59815426
  H       -1.56729057      6.61881392      0.00000000
  C       -2.12534259      4.37879213     -2.12448462
  H       -1.76369589      3.88986826     -3.03268813
  H       -3.16024710      4.05706487     -1.97838075
  H       -2.13699326      5.45532320     -2.32404261
  C        1.28444624     -0.01482366     -3.17752571
  C        3.02607971      1.78138103     -3.36264917
  H        3.42440390      1.63360298     -2.34912980
  H        3.19472560      2.83472258     -3.61055151
  C        0.41594071     -0.55607002     -2.30734602
  H        0.33871027     -1.64077300     -2.23845068
  C        0.85436409      1.94304349     -4.67514183
  H        1.13081078      2.97152968     -4.92595427
  H        1.18202054      1.31124884     -5.50445432
  H       -0.23730468      1.88142826     -4.63555314
  C        2.10981084     -0.91448298     -4.07922693
  H        1.95470941     -1.96400167     -3.81063277
  H        1.77534414     -0.80371876     -5.12311823
  C        3.82964280      0.89899400     -4.33004868
  H        3.53773615      1.10420176     -5.37058758
  H        4.89736458      1.13322596     -4.25207835
  C       -3.71058719      6.41933401      0.11110410
  H       -3.86369395      6.04400786     -0.90578435
  H       -4.44479751      5.89463465      0.73635847
  C        3.60945676     -0.58408350     -4.03385884
  H        3.99337475     -0.81100910     -3.03158708
  C       -2.09051591      6.46840196      2.06838503
  H       -2.78017404      5.92808374      2.72927394
  H       -2.26126950      7.53887101      2.21701320
  H       -1.07057935      6.25081318      2.40368388
  C       -4.07174061      7.92059911      0.15040031
  H       -5.11504236      8.02133177     -0.17509157
  H       -4.06176548      8.27022692      1.18990462
  C       -3.18730003      8.87039483     -0.67890423
  H       -2.15462419      8.82249947     -0.30764607
  H       -3.52218946      9.90135636     -0.49050344
  C       -3.16802900      8.64635834     -2.20569434
  H       -2.83371274      7.61725648     -2.39902165
  C       -2.15341556      9.59215859     -2.86837523
  H       -2.43746715     10.64082421     -2.71222594
  H       -2.09599333      9.42157585     -3.94955618
  H       -1.14831365      9.45537378     -2.45288606
  C       -4.55653226      8.81505432     -2.84300287
  H       -4.94933185      9.82339097     -2.65797954
  H       -4.50863207      8.67197097     -3.92854003
  H       -5.28278290      8.09718824     -2.44860831



