%Mem=256MB 
%NProc=48 

#P HF/6-31G* SCF(Conver=6) NoSymm Test 
   Pop=chelpg IOp(6/33=2) GFInput GFPrint 

MEP - Input generated by R.E.D.-III.x MOLECULE 

0 1 
  O        6.84704175      0.78315794     -0.00000000
  H        7.41348699      0.00000000      0.00000000
  O       10.44961772     -1.99683584      4.93900977
  H       10.13433273     -1.88707308      5.84714793
  C        2.79436786     -0.61216522      0.75121016
  C        4.09818977      0.20095502      0.51595556
  H        4.60299926     -0.29208061     -0.32701471
  C        5.09970407      0.17509516      1.67689072
  H        4.64765518      0.66259432      2.55287608
  C        5.47100163     -1.28445432      2.04157104
  H        6.05151355     -1.67023525      1.18698458
  C        2.04630331     -0.31487118     -0.59581738
  H        2.56118091     -0.91033610     -1.36651247
  C        3.23309757     -2.07230399      0.98779617
  H        3.70595278     -2.44933576      0.06953220
  H        2.38088837     -2.72853325      1.19021102
  C        6.42760112     -1.36569844      3.28248478
  C        3.61670693      1.55888449     -0.01210395
  H        4.38780522      2.06403638     -0.60032878
  H        3.34984341      2.22992659      0.81448521
  C        4.22317630     -2.19019001      2.16481211
  H        3.68653240     -1.95870018      3.09071393
  H        4.53557514     -3.23723580      2.25237032
  C        2.36728422      1.19636272     -0.86075712
  H        1.51062609      1.82164772     -0.58165480
  H        2.54722915      1.37680419     -1.92455231
  C        6.36841166      0.99093597      1.34997299
  H        6.11063911      2.05612359      1.36740943
  C        0.53296941     -0.63251598     -0.72440511
  H        0.00000000      0.00000000      0.00000000
  C        1.97005604     -0.08471551      1.94795679
  H        2.54307432     -0.07760062      2.87882666
  H        1.61616866      0.93705670      1.78044464
  H        1.08761547     -0.71066314      2.11787555
  C        7.53219929     -0.30592529      3.17686315
  C        7.09961348     -2.77357936      3.30356292
  H        7.47914348     -2.98857213      2.29489933
  H        6.34074082     -3.53398779      3.51681916
  C        7.48052155      0.73041858      2.32382369
  H        8.31354771      1.43192971      2.28844606
  C        5.65923113     -1.13764257      4.61285163
  H        4.98382604     -1.97056752      4.83004620
  H        6.34180610     -1.04765694      5.46152433
  H        5.06815204     -0.21761156      4.57630422
  C        8.72218724     -0.46186720      4.10583786
  H        9.48636031      0.28539964      3.87057784
  H        8.40971503     -0.27632025      5.14591793
  C        8.26112558     -2.92405282      4.29783476
  H        7.89750719     -2.82913797      5.33168875
  H        8.70181951     -3.92367921      4.21115478
  C        0.03725132     -0.24986122     -2.14275878
  H        0.32572999      0.78470950     -2.35621448
  H        0.58115697     -0.86749855     -2.87308025
  C        9.33794352     -1.86827892      4.04905834
  H        9.77240601     -2.02619869      3.05420663
  C        0.19024082     -2.09947211     -0.41317718
  H        0.75204642     -2.78138601     -1.06419966
  H       -0.87446640     -2.29999510     -0.56586062
  H        0.41707458     -2.36420957      0.62175769
  C       -1.47247535     -0.40106416     -2.41824498
  H       -1.65171906     -0.11974457     -3.46383787
  H       -1.75979888     -1.45761594     -2.35283483
  C       -2.41161042      0.40855728     -1.50406427
  H       -2.30433245      0.05410721     -0.46985772
  H       -3.44967100      0.18189089     -1.78955063
  C       -2.23434928      1.94174926     -1.51336417
  H       -1.20037967      2.17105258     -1.21787445
  C       -3.16394375      2.58982578     -0.47464973
  H       -4.21682249      2.39940005     -0.71965970
  H       -3.02337932      3.67613592     -0.43666452
  H       -2.97967752      2.19230238      0.53015190
  C       -2.47172469      2.55268579     -2.90366668
  H       -3.48710610      2.33127419     -3.25765412
  H       -2.36048527      3.64262713     -2.87608324
  H       -1.76801354      2.16934439     -3.64950384



