%Mem=256MB 
%NProc=48 

#P HF/6-31G* SCF(Conver=6) NoSymm Test 
   Pop=chelpg IOp(6/33=2) GFInput GFPrint 

MEP - Input generated by R.E.D.-III.x MOLECULE 

0 1 
  O        6.09023691      2.82358555      0.00000000
  H        5.51856589      2.55802792      0.73269666
  O        0.00000000      0.00000000      0.00000000
  H       -0.23884894     -0.56452507     -0.74862229
  C        8.78282455     -0.50741285     -0.75732324
  C        7.96539394      0.81633292     -0.78956106
  H        7.95798271      1.18397257      0.24586986
  C        6.49138433      0.66054150     -1.18229302
  H        6.42790845      0.31138692     -2.22288323
  C        5.78755526     -0.36560402     -0.25680378
  H        5.74218294      0.10813139      0.73802261
  C       10.17529769      0.08024176     -0.33883339
  H       10.02390418      0.42411766      0.69327876
  C        8.09494161     -1.42676710      0.27008525
  H        8.16488026     -0.96491215      1.26484862
  H        8.59740390     -2.39897008      0.33805579
  C        4.29807590     -0.62404130     -0.67732767
  C        8.84785674      1.79409596     -1.58448868
  H        8.63264245      2.83499351     -1.32717221
  H        8.67839433      1.68689863     -2.66359922
  C        6.61204657     -1.66406060     -0.08184660
  H        6.56543205     -2.26103763     -0.99831305
  H        6.16142171     -2.28188392      0.70344750
  C       10.29736645      1.37488121     -1.20489425
  H       10.89802509      1.19724720     -2.10274496
  H       10.81385622      2.15944284     -0.64122988
  C        5.75059012      2.01412550     -1.15064516
  H        6.09554465      2.61818675     -1.99771014
  C       11.49363967     -0.74524840     -0.29084494
  H       12.25236839     -0.00000000      0.00000000
  C        8.82956424     -1.19587345     -2.14132562
  H        7.83291533     -1.31586633     -2.57412269
  H        9.42653911     -0.63237442     -2.86291173
  H        9.26609392     -2.19598363     -2.06306949
  C        3.59945140      0.70007866     -1.01407230
  C        3.54753561     -1.28241804      0.52167976
  H        3.77666741     -0.70603800      1.42885682
  H        3.94331252     -2.29007974      0.68755543
  C        4.26073403      1.84952732     -1.22824465
  H        3.69533146      2.75647649     -1.44057549
  C        4.20750421     -1.55245106     -1.91904083
  H        4.52743406     -2.57066233     -1.67841500
  H        3.18482440     -1.61813121     -2.29859339
  H        4.83147305     -1.18159279     -2.73775855
  C        2.08522440      0.66988219     -1.11253241
  H        1.69502617      1.68244864     -1.25453199
  H        1.78074161      0.08783924     -1.99701952
  C        2.02043223     -1.35671038      0.37067703
  H        1.74781781     -2.02258016     -0.46142062
  H        1.57485892     -1.78666976      1.27488055
  C       11.53398794     -1.83873192      0.80327705
  H       10.77179721     -2.60133165      0.59455404
  H       12.50002647     -2.35635880      0.71366633
  C        1.42474571      0.02780289      0.11700015
  H        1.60870943      0.66357396      0.99186539
  C       11.98615306     -1.34861454     -1.62197819
  H       11.42959047     -2.24962652     -1.89599280
  H       13.03936446     -1.63653989     -1.52695492
  H       11.91619911     -0.64584924     -2.45720477
  C       11.39140227     -1.35304871      2.25427192
  H       12.12034086     -0.55037632      2.43090546
  H       10.40100138     -0.91014902      2.40687627
  C       11.60778543     -2.48723096      3.26965933
  H       12.60432749     -2.92153432      3.10388449
  H       10.88882017     -3.29157297      3.05592205
  C       11.48502369     -2.11167505      4.76486104
  H       11.67541209     -3.03927239      5.32488108
  C       10.07192869     -1.63848104      5.14438530
  H        9.82636974     -0.67949583      4.67377079
  H        9.98490281     -1.50134050      6.22830596
  H        9.31154689     -2.36654415      4.83789236
  C       12.54634029     -1.09095018      5.20811554
  H       12.38755469     -0.11313437      4.73901320
  H       12.51417115     -0.94138698      6.29338934
  H       13.55685475     -1.42701107      4.94728954



