%Mem=256MB 
%NProc=48 

#P HF/6-31G* SCF(Conver=6) NoSymm Test 
   Pop=chelpg IOp(6/33=2) GFInput GFPrint 

MEP - Input generated by R.E.D.-III.x MOLECULE 

0 1 
  O        0.00000000      0.00000000      0.00000000
  H       -0.46667789      0.46141306     -0.70956460
  O       -3.21063405      5.89699413      0.00000000
  H       -2.90598265      6.57939944      0.61455441
  C        4.19547664      1.09605231     -0.35087128
  C        2.80186594      0.55182512      0.06918456
  H        2.35660793      0.14717134     -0.85083659
  C        1.81730908      1.61165638      0.57818135
  H        2.21075976      2.05336606      1.50526770
  C        1.62998265      2.72938455     -0.47916612
  H        1.09730659      2.25949277     -1.32272323
  C        4.89112849     -0.24853638     -0.75993285
  H        4.43084919     -0.54070090     -1.71525624
  C        3.94254067      2.11103393     -1.48413979
  H        3.51569677      1.57706785     -2.34533981
  H        4.87197033      2.57246574     -1.83324272
  C        0.69595918      3.88302739      0.02938410
  C        3.11086106     -0.66007601      0.96047085
  H        2.28538839     -1.37722337      0.97088305
  H        3.28236335     -0.35091597      1.99961818
  C        2.97989340      3.23285701     -1.04314951
  H        3.48856387      3.84835580     -0.29403097
  H        2.79769687      3.89186028     -1.89995698
  C        4.40532826     -1.25292511      0.33697386
  H        5.18030758     -1.38397341      1.10155194
  H        4.22665483     -2.24392167     -0.09190573
  C        0.45660988      0.98806802      0.95390582
  H        0.58215803      0.41111201      1.87733516
  C        6.42693158     -0.28450928     -0.95765296
  H        6.88709490     -0.00000000      0.00000000
  C        4.95682703      1.76069248      0.81860453
  H        4.39295776      2.58040849      1.27128115
  H        5.18346686      1.04725058      1.61669028
  H        5.90942203      2.17730306      0.47374383
  C       -0.52998666      3.30250787      0.74672510
  C        0.19987076      4.70307603     -1.20174182
  H       -0.15623962      3.99660960     -1.96446870
  H        1.04654623      5.23697072     -1.64635253
  C       -0.60995686      2.02499449      1.15405486
  H       -1.52253583      1.67718076      1.63730644
  C        1.43700902      4.82570726      1.01642074
  H        2.20981434      5.40802906      0.50584033
  H        0.75264211      5.53885120      1.48258636
  H        1.91142199      4.25993837      1.82388960
  C       -1.68694861      4.25101945      1.00190433
  H       -2.53746952      3.70587281      1.42278067
  H       -1.39337597      5.00386121      1.75079697
  C       -0.92944492      5.70144084     -0.90469518
  H       -0.57443574      6.49454432     -0.23016234
  H       -1.24611617      6.19565164     -1.83014025
  C        6.94681880     -1.71645163     -1.25624997
  H        8.04493546     -1.66997055     -1.28831135
  H        6.70241885     -2.37517628     -0.41354656
  C       -2.12778451      5.00144641     -0.26419681
  H       -2.54544014      4.28015106     -0.97745517
  C        6.93996987      0.70443014     -2.02134127
  H        6.40416682      0.59842385     -2.97128401
  H        8.00473397      0.53414387     -2.22053815
  H        6.83312098      1.74328600     -1.69894554
  C        6.44969308     -2.37400539     -2.55471055
  H        5.35673553     -2.46195276     -2.52858979
  H        6.68851119     -1.72942304     -3.40924872
  C        7.07221212     -3.76374068     -2.76808684
  H        6.84165406     -4.38984519     -1.89386933
  H        8.16685648     -3.65901350     -2.78384966
  C        6.63971212     -4.52928228     -4.04036700
  H        7.18612884     -5.48388962     -4.01764437
  C        7.04842680     -3.80672942     -5.33483195
  H        6.49640182     -2.86887409     -5.46600599
  H        6.84293767     -4.43153027     -6.21158097
  H        8.11861262     -3.56825851     -5.33813669
  C        5.13993068     -4.86878214     -4.04748432
  H        4.52124325     -3.96790836     -4.13184244
  H        4.89082924     -5.51604411     -4.89619022
  H        4.84474502     -5.39234115     -3.13054174



