%Mem=256MB 
%NProc=48 

#P HF/6-31G* SCF(Conver=6) NoSymm Test 
   Pop=chelpg IOp(6/33=2) GFInput GFPrint 

MEP - Input generated by R.E.D.-III.x MOLECULE 

0 1 
  O        6.73186675      0.81894982      0.00000000
  H        7.24517174     -0.00000000     -0.00000000
  O       11.39727303     -1.41498356      4.28242186
  H       11.34056761     -1.12808163      5.20472526
  C        2.97389060     -0.06596982      2.00393160
  C        4.19748496      0.59033710      1.30119125
  H        4.44196184     -0.06888779      0.45678824
  C        5.47182300      0.66293868      2.15067390
  H        5.29842466      1.32819428      3.00863429
  C        5.86142089     -0.74568799      2.66889616
  H        6.17593199     -1.31699935      1.77959164
  C        1.92787061      0.06918753      0.84281461
  H        2.29569580     -0.61703205      0.06750720
  C        3.39645480     -1.49966062      2.37823612
  H        3.59825729     -2.06378374      1.45700418
  H        2.59335291     -2.03092160      2.90273981
  C        7.11042622     -0.70685811      3.61792593
  C        3.63955250      1.88541180      0.68612258
  H        4.23271406      2.21479596     -0.17156996
  H        3.64928854      2.70320428      1.41810826
  C        4.65521356     -1.50783317      3.26974724
  H        4.39265791     -1.08137607      4.24318853
  H        4.93876539     -2.54874859      3.46347854
  C        2.18216162      1.50918739      0.29229522
  H        1.46899585      2.22587440      0.71215806
  H        2.03500447      1.53096072     -0.79302352
  C        6.64158376      1.29223359      1.36470558
  H        6.44531351      2.36446583      1.24981069
  C        0.41530631     -0.26688835      0.98374804
  H        0.00000000      0.00000000      0.00000000
  C        2.54566012      0.71107145      3.27047728
  H        3.38566910      0.88787115      3.94726677
  H        2.11617608      1.68712574      3.03077159
  H        1.79420832      0.15058270      3.83429875
  C        8.19210083      0.21646223      3.04146902
  C        7.70197302     -2.14661270      3.72494544
  H        7.78896644     -2.55889255      2.70999339
  H        6.99530771     -2.78968972      4.26030610
  C        7.96062585      1.09707394      2.05386721
  H        8.78413940      1.70440141      1.67930544
  C        6.73579353     -0.19330650      5.03498396
  H        6.10433345     -0.91281061      5.56470801
  H        7.62327102     -0.02964240      5.65131385
  H        6.20011851      0.75929528      4.98251710
  C        9.57860160      0.11028168      3.64960316
  H       10.28411255      0.73647143      3.09476907
  H        9.56258545      0.49285026      4.68266309
  C        9.07893967     -2.23450418      4.40058882
  H        9.00869599     -1.93776143      5.45748483
  H        9.43673043     -3.27027994      4.38909084
  C        0.10575933     -1.76815102      1.20443426
  H        0.50109188     -2.07370722      2.18162718
  H       -0.98630418     -1.87018372      1.28468535
  C       10.09532031     -1.33573404      3.69677538
  H       10.24163996     -1.69448024      2.67045585
  C       -0.39052986      0.55878203      2.00728625
  H       -0.21520454      0.22687020      3.03485986
  H       -1.46225928      0.44277661      1.80936119
  H       -0.16588759      1.62821388      1.95846116
  C        0.59471573     -2.76656400      0.13746036
  H        1.68887003     -2.73518061      0.05705785
  H        0.35172984     -3.77407442      0.49736697
  C       -0.01799965     -2.56157904     -1.25651505
  H        0.22956762     -1.55430596     -1.61607674
  H       -1.11608758     -2.59504910     -1.17959746
  C        0.43642328     -3.57511028     -2.32803218
  H        1.53744056     -3.57044746     -2.34352771
  C       -0.05209658     -3.14280446     -3.71985764
  H       -1.14884395     -3.12321709     -3.75992372
  H        0.29537600     -3.83366443     -4.49650755
  H        0.30822292     -2.14011956     -3.97678337
  C       -0.02452071     -5.00939209     -2.02110765
  H       -1.12009225     -5.06267131     -1.97378779
  H        0.30716104     -5.70208846     -2.80296985
  H        0.36933901     -5.37676730     -1.06830925



