%Mem=256MB 
%NProc=48 

#P HF/6-31G* SCF(Conver=6) NoSymm Test 
   Pop=chelpg IOp(6/33=2) GFInput GFPrint 

MEP - Input generated by R.E.D.-III.x MOLECULE 

0 1 
  O        0.00000000      0.00000000      0.00000000
  H        0.96651937     -0.00000000     -0.00000000
  O        4.36748461     -1.39151370     -4.90898256
  H        4.09202871     -1.22447089     -5.82133929
  C       -1.24211598      4.07226956     -0.86385457
  C       -1.14290581      2.55286775     -0.57621205
  H       -0.43940706      2.45639079      0.26252305
  C       -0.53904497      1.72885995     -1.71877778
  H       -1.20007659      1.78597747     -2.59561212
  C        0.86203956      2.28154944     -2.09554123
  H        1.51331169      2.05283833     -1.23558933
  C       -1.89702167      4.54320637      0.47221239
  H       -1.10568444      4.39824810      1.22183216
  C        0.18880814      4.58514867     -1.10142880
  H        0.76813089      4.45474419     -0.17606901
  H        0.19724140      5.65986423     -1.32816264
  C        1.48911822      1.52670278     -3.32027040
  C       -2.52667979      2.17797652     -0.01413799
  H       -2.47405402      1.29678971      0.63117855
  H       -3.23066496      1.94237421     -0.82259971
  C        0.87875226      3.82400595     -2.25263645
  H        0.39680486      4.10695716     -3.19360212
  H        1.91536191      4.17118469     -2.33051013
  C       -2.98041494      3.45608118      0.75887734
  H       -3.96892786      3.77799579      0.41918961
  H       -3.07002429      3.26595842      1.83334758
  C       -0.44942210      0.23170316     -1.35606689
  H       -1.46235962     -0.18725071     -1.36326056
  C       -2.32563959      6.03283824      0.61168587
  H       -1.62432305      6.62141254      0.00000000
  C       -2.13388835      4.39495957     -2.08308065
  H       -1.75212606      3.94840022     -3.00484148
  H       -3.15737633      4.03212736     -1.95342710
  H       -2.18279959      5.47699261     -2.24705501
  C        1.28382993      0.01249906     -3.17811274
  C        3.02261239      1.81276910     -3.35177893
  H        3.42203220      1.65885500     -2.33961225
  H        3.18928342      2.86807390     -3.59261636
  C        0.41623748     -0.53629745     -2.31179454
  H        0.34036387     -1.62158334     -2.25105325
  C        0.84882671      1.98000761     -4.66079987
  H        1.12416140      3.01022861     -4.90550053
  H        1.17545267      1.35366262     -5.49460225
  H       -0.24271868      1.91726701     -4.61955981
  C        2.11009877     -0.87923359     -4.08676031
  H        1.95653283     -1.93095441     -3.82599621
  H        1.77525592     -0.76103213     -5.12971161
  C        3.82738192      0.93827376     -4.32544659
  H        3.53515567      1.15027711     -5.36452284
  H        4.89475222      1.17355513     -4.24584737
  C       -3.75502581      6.37192882      0.12128869
  H       -4.00383603      5.77460924     -0.75983108
  H       -4.47881767      6.08167201      0.89682895
  C        3.60928303     -0.54712667     -4.03927134
  H        3.99346265     -0.78018636     -3.03850629
  C       -2.14195935      6.48993624      2.07366189
  H       -2.75544518      5.88209452      2.75029375
  H       -2.43115150      7.53620734      2.21631748
  H       -1.09815236      6.39061167      2.39153596
  C       -3.95381002      7.85935474     -0.21740283
  H       -3.61259490      8.47612493      0.62343829
  H       -3.30346950      8.12514174     -1.06199299
  C       -5.40866274      8.25696326     -0.52706810
  H       -5.45349498      9.34788757     -0.66271122
  H       -6.02416013      8.03703210      0.35723884
  C       -6.06764785      7.59376509     -1.75536000
  H       -6.03396984      6.50339983     -1.61851106
  C       -5.33610612      7.92807828     -3.06511188
  H       -5.32404185      9.01218580     -3.23797980
  H       -5.83462026      7.46112982     -3.92222383
  H       -4.29796002      7.58051312     -3.05927225
  C       -7.54736948      7.99982724     -1.84679059
  H       -7.64735627      9.08383444     -1.98767539
  H       -8.04410795      7.50826867     -2.69112985
  H       -8.09237528      7.73161051     -0.93443260



