%Mem=256MB 
%NProc=48 

#P HF/6-31G* SCF(Conver=6) NoSymm Test 
   Pop=chelpg IOp(6/33=2) GFInput GFPrint 

MEP - Input generated by R.E.D.-III.x MOLECULE 

0 1 
  O        5.76395817      3.44631664      0.00000000
  H        5.12876973      3.28789316      0.71110850
  O        0.00000000      0.00000000      0.00000000
  H       -0.08311672     -0.74403775     -0.61291289
  C        8.81914855      0.36990615      0.37595753
  C        7.89607367      1.54474193     -0.05259253
  H        7.71759847      2.12647733      0.86301556
  C        6.51039293      1.13071923     -0.56297581
  H        6.62748961      0.54586282     -1.48683995
  C        5.77675738      0.26878115      0.49533555
  H        5.55378703      0.94770201      1.33528790
  C       10.10370812      1.17303420      0.78507895
  H        9.86852361      1.65069840      1.74949236
  C        8.07944460     -0.36941758      1.51018659
  H        7.98025125      0.31280098      2.36674451
  H        8.64184973     -1.23753204      1.86802247
  C        4.38812024     -0.25234784     -0.01614629
  C        8.78006297      2.42247723     -0.94856364
  H        8.42651965      3.45671242     -0.98250782
  H        8.78642234      2.04934929     -1.98077232
  C        6.68185770     -0.84813408      1.06658568
  H        6.80951972     -1.63977614      0.32101953
  H        6.18779939     -1.31980937      1.92393636
  C       10.18728247      2.29898708     -0.30264333
  H       10.94360129      2.04567169     -1.05544120
  H       10.50028870      3.24836681      0.14151472
  C        5.65733496      2.35795039     -0.94794954
  H        6.06144293      2.78580488     -1.87260899
  C       11.45047763      0.42674101      0.97359438
  H       11.73680331      0.00000000      0.00000000
  C        9.13981822     -0.59222629     -0.79094091
  H        8.23876800     -1.01178185     -1.24590117
  H        9.70029738     -0.09403905     -1.58778513
  H        9.74753792     -1.43460906     -0.44422966
  C        3.62972377      0.86805720     -0.73988629
  C        3.54029526     -0.70306437      1.21351104
  H        3.59040244      0.08828854      1.97437854
  H        3.99661118     -1.59214164      1.66174798
  C        4.21202928      2.00684601     -1.15027894
  H        3.60467381      2.76870187     -1.63814205
  C        4.55117535     -1.44385655     -0.99896910
  H        4.91978938     -2.33640840     -0.48461858
  H        3.60101655     -1.71234337     -1.46733948
  H        5.24955063     -1.19967765     -1.80508229
  C        2.15168202      0.63926741     -0.99799676
  H        1.69789365      1.54010672     -1.42260539
  H        2.02318224     -0.16029410     -1.74498549
  C        2.06115887     -0.98939494      0.91278324
  H        1.96555785     -1.85460224      0.24021380
  H        1.53447438     -1.25154895      1.83736912
  C       12.56314387      1.42596406      1.37789104
  H       12.52277325      2.29941574      0.71736516
  H       12.34877421      1.80159612      2.39040574
  C        1.38713106      0.22101491      0.26722602
  H        1.39257459      1.05644256      0.97818923
  C       11.37046509     -0.72476122      1.99149915
  H       11.00556427     -0.36503521      2.96192090
  H       12.35255855     -1.17831239      2.15495351
  H       10.70338268     -1.52361146      1.66008642
  C       13.99786700      0.87405055      1.33408294
  H       14.10835780      0.05040616      2.04840368
  H       14.18191455      0.44814821      0.33825044
  C       15.04430483      1.95839450      1.63953416
  H       14.81849057      2.39633875      2.62269841
  H       14.92779889      2.77436453      0.91169254
  C       16.52543672      1.51339005      1.63610595
  H       17.11136016      2.41629557      1.86361910
  C       16.98939177      1.00956687      0.25933364
  H       16.49459269      0.07080224     -0.01524686
  H       18.06934339      0.82252454      0.25606703
  H       16.77516228      1.74296189     -0.52704413
  C       16.83927865      0.48448200      2.73506937
  H       16.34072246     -0.47348226      2.54731623
  H       17.91603852      0.28669858      2.78750706
  H       16.51713705      0.84192058      3.72023993



