%Mem=256MB 
%NProc=48 

#P HF/6-31G* SCF(Conver=6) NoSymm Test 
   Pop=chelpg IOp(6/33=2) GFInput GFPrint 

MEP - Input generated by R.E.D.-III.x MOLECULE 

0 1 
  O        6.85097369      0.78493730      0.00000000
  H        7.41498693     -0.00000000      0.00000000
  O       10.45952661     -1.98205870      4.94189722
  H       10.14490395     -1.87031350      5.85002026
  C        2.80021015     -0.61489514      0.75605253
  C        4.10266609      0.19936412      0.51824611
  H        4.60747562     -0.29441064     -0.32434593
  C        5.10501864      0.17708942      1.67876900
  H        4.65273434      0.66578585      2.55393074
  C        5.47811435     -1.28123122      2.04657220
  H        6.05841266     -1.66861430      1.19254824
  C        2.05079702     -0.32243227     -0.59129068
  H        2.56467855     -0.92079836     -1.36034990
  C        3.24036319     -2.07397296      0.99603974
  H        3.71341157     -2.45263573      0.07854718
  H        2.38854837     -2.73031834      1.19997476
  C        6.43550651     -1.35882898      3.28708983
  C        3.61815169      1.55541381     -0.01184541
  H        4.38855713      2.06237762     -0.59942480
  H        3.34804589      2.22628823      0.81379886
  C        4.23104431     -2.18782566      2.17281029
  H        3.69475136     -1.95420665      3.09837765
  H        4.54441055     -3.23436896      2.26320127
  C        2.37126399      1.18813083     -0.86220140
  H        1.51273524      1.81413514     -0.59028135
  H        2.55588307      1.36331211     -1.92606043
  C        6.37249075      0.99396603      1.34976943
  H        6.11339852      2.05885219      1.36548976
  C        0.53775702     -0.64119154     -0.71530962
  H        0.00000000      0.00000000      0.00000000
  C        1.97590999     -0.08474378      1.95173143
  H        2.54923302     -0.07444552      2.88237681
  H        1.62091045      0.93616967      1.78143329
  H        1.09405440     -0.71073222      2.12380043
  C        7.53876179     -0.29800540      3.17867697
  C        7.10913593     -2.76584024      3.31058588
  H        7.48834255     -2.98239782      2.30213334
  H        6.35124037     -3.52668040      3.52579299
  C        7.48542071      0.73651619      2.32353872
  H        8.31770875      1.43880512      2.28611428
  C        5.66761551     -1.12874854      4.61736386
  H        4.99267466     -1.96154606      4.83641674
  H        6.35040537     -1.03690080      5.46566724
  H        5.07620852     -0.20898649      4.57935956
  C        8.72975299     -0.45063612      4.10701745
  H        9.49287876      0.29697500      3.86943643
  H        8.41809868     -0.26320833      5.14699198
  C        8.27150327     -2.91292925      4.30433362
  H        7.90856062     -2.81640241      5.33827172
  H        8.71329633     -3.91221759      4.21934408
  C        0.02801964     -0.27166778     -2.13077814
  H        0.38795218      0.72897395     -2.39536643
  H        0.48272021     -0.95988657     -2.86005298
  C        9.34697894     -1.85645772      4.05259933
  H        9.78074457     -2.01584608      3.05767282
  C        0.19609019     -2.10600951     -0.38964062
  H        0.77385060     -2.79269293     -1.02125261
  H       -0.86455987     -2.31302207     -0.56023588
  H        0.40457230     -2.35701250      0.65272563
  C       -1.49949249     -0.27994715     -2.30852907
  H       -1.89467007     -1.28785267     -2.13878865
  H       -1.94786108      0.36302697     -1.53878879
  C       -1.92194348      0.20542755     -3.70498204
  H       -1.43222815     -0.42772780     -4.45909844
  H       -1.52610662      1.21964174     -3.85930495
  C       -3.43953708      0.22682566     -4.00204349
  H       -3.53951735      0.60524353     -5.03020197
  C       -4.20843774      1.19536986     -3.08809203
  H       -4.21008237      0.85307210     -2.04678118
  H       -5.25410930      1.28314011     -3.40456881
  H       -3.76773810      2.19910331     -3.10946888
  C       -4.07006347     -1.17552722     -3.97534191
  H       -4.06854264     -1.60112810     -2.96521071
  H       -5.11231368     -1.14051603     -4.31263841
  H       -3.53000891     -1.86852359     -4.63123514



