%Mem=256MB 
%NProc=48 

#P HF/6-31G* SCF(Conver=6) NoSymm Test 
   Pop=chelpg IOp(6/33=2) GFInput GFPrint 

MEP - Input generated by R.E.D.-III.x MOLECULE 

0 1 
  O        0.00000000      0.00000000      0.00000000
  H       -0.40843591      0.47719634     -0.73459866
  O       -4.36027944      5.10798274      0.00000000
  H       -4.33898268      5.72205905      0.74741364
  C        3.83750935      1.91160399      0.73670307
  C        2.54349772      1.04800190      0.77541986
  H        2.38067412      0.71317445     -0.25836409
  C        1.26968978      1.80486133      1.16974539
  H        1.36142232      2.15269721      2.20866647
  C        1.05348819      3.02737611      0.24060103
  H        0.81055174      2.61199428     -0.75167117
  C        4.85949188      0.79625170      0.32175080
  H        4.57757939      0.54269258     -0.70946351
  C        3.59158576      3.02938762     -0.29485806
  H        3.45969398      2.57588765     -1.28712409
  H        4.45302109      3.70369797     -0.36918001
  C       -0.19099647      3.88445354      0.66351740
  C        2.94071370     -0.20535238      1.57419429
  H        2.31175396     -1.06337833      1.32085894
  H        2.83268824     -0.03352356      2.65284646
  C        2.34301280      3.86401590      0.05678332
  H        2.55182230      4.43149504      0.96934518
  H        2.18763026      4.60881757     -0.73224741
  C        4.43269826     -0.42821029      1.19349545
  H        5.05427848     -0.51199236      2.09079698
  H        4.57559067     -1.35921866      0.63414733
  C        0.03223426      0.88268928      1.14641260
  H        0.09704002      0.19359448      1.99632879
  C        6.40164589      0.99638233      0.27271352
  H        6.78163465     -0.00000000     -0.00000000
  C        4.16875470      2.52431696      2.11735781
  H        3.31342514      3.05078954      2.54883715
  H        4.47784922      1.76677389      2.84205547
  H        4.98200786      3.25124616      2.03437518
  C       -1.37663409      2.97294070      1.00724598
  C       -0.60336809      4.79287389     -0.53607647
  H       -0.63943434      4.17126136     -1.44159519
  H        0.17603485      5.54309983     -0.70699868
  C       -1.25348680      1.65319133      1.22521201
  H       -2.14455304      1.06485242      1.44242553
  C        0.11849293      4.76931747      1.90184168
  H        0.83264773      5.56103517      1.65649131
  H       -0.78228684      5.25604775      2.28388534
  H        0.53451570      4.17410305      2.72024735
  C       -2.74015618      3.63168116      1.10910788
  H       -3.51633813      2.87417309      1.25545707
  H       -2.77109573      4.28937519      1.99245552
  C       -1.95962254      5.49770108     -0.38094957
  H       -1.92619644      6.21818578      0.44960555
  H       -2.18895380      6.07256053     -1.28534264
  C        6.89054983      1.97324220     -0.82491775
  H        6.53322764      2.98369056     -0.58838129
  H        7.98682776      2.02480742     -0.75394823
  C       -3.07741362      4.48826118     -0.12081160
  H       -3.17878056      3.83199750     -0.99400913
  C        7.10131535      1.35416667      1.59981442
  H        6.96791922      2.40692266      1.86577867
  H        8.17914886      1.17971077      1.50454161
  H        6.74823399      0.74968122      2.44034510
  C        6.52811125      1.64691732     -2.28693475
  H        5.43964244      1.64648982     -2.41372709
  H        6.90115364      2.47152891     -2.90765152
  C        7.11485798      0.32016716     -2.79721165
  H        6.68124874     -0.51254590     -2.22766229
  H        8.19318801      0.30678249     -2.57973946
  C        6.92031146      0.01848912     -4.30243242
  H        7.37909691     -0.96666579     -4.47324811
  C        7.65457284      1.01884637     -5.21071532
  H        7.21624491      2.02156491     -5.14898290
  H        7.60047971      0.70408984     -6.25918007
  H        8.71414222      1.09945804     -4.94072721
  C        5.43832510     -0.09968044     -4.69547635
  H        4.92072172      0.86299285     -4.61225374
  H        5.33586549     -0.43684206     -5.73329114
  H        4.91177765     -0.81914862     -4.05744375



