%Mem=256MB 
%NProc=48 

#P HF/6-31G* SCF(Conver=6) NoSymm Test 
   Pop=chelpg IOp(6/33=2) GFInput GFPrint 

MEP - Input generated by R.E.D.-III.x MOLECULE 

0 1 
  O        0.00000000      0.00000000      0.00000000
  H       -0.40908679      0.47955876     -0.73269666
  O       -4.36045602      5.10392440      0.00000000
  H       -4.34243271      5.71663357      0.74862229
  C        3.83542759      1.90658694      0.75732324
  C        2.54086912      1.04367672      0.78956106
  H        2.38098523      0.71254082     -0.24586986
  C        1.26573662      1.79933033      1.18229302
  H        1.35347641      2.14319053      2.22288323
  C        1.05333956      3.02539618      0.25680378
  H        0.81474912      2.61362138     -0.73802261
  C        4.85653518      0.79228955      0.33883339
  H        4.57565540      0.54273558     -0.69327876
  C        3.59304159      3.02892566     -0.27008525
  H        3.46422996      2.57991679     -1.26484862
  H        4.45481978      3.70345168     -0.33805579
  C       -0.19309776      3.88080987      0.67732767
  C        2.93581757     -0.21281717      1.58448868
  H        2.30656221     -1.06945164      1.32717221
  H        2.82641319     -0.04477118      2.66359922
  C        2.34378232      3.86237462      0.08184660
  H        2.55008535      4.42450766      0.99831305
  H        2.19148126      4.61175624     -0.70344750
  C        4.42820530     -0.43552379      1.20489425
  H        5.04826362     -0.52424995      2.10274496
  H        4.57092693     -1.36392519      0.64122988
  C        0.02841912      0.87736986      1.15064516
  H        0.09038752      0.18451811      1.99771014
  C        6.39891831      0.99357014      0.29084494
  H        6.77823722     -0.00000000     -0.00000000
  C        4.16470840      2.51299995      2.14132562
  H        3.30863458      3.03725651      2.57412269
  H        4.47268670      1.75204034      2.86291173
  H        4.97817210      3.24036186      2.06306949
  C       -1.37980483      2.96806883      1.01407230
  C       -0.60116033      4.79199348     -0.52167976
  H       -0.63295593      4.17255474     -1.42885682
  H        0.17840051      5.54319675     -0.68755543
  C       -1.25745091      1.64763085      1.22824465
  H       -2.14926590      1.05864622      1.44057549
  C        0.11130730      4.76256123      1.91904083
  H        0.82630978      5.55495050      1.67841500
  H       -0.79105621      5.24828540      2.29859339
  H        0.52407361      4.16548758      2.73775855
  C       -2.74381781      3.62629662      1.11253241
  H       -3.52035020      2.86831053      1.25453199
  H       -2.77816523      4.28227225      1.99701952
  C       -1.95851044      5.49567294     -0.37067703
  H       -1.92896672      6.21458068      0.46142062
  H       -2.18447690      6.07216214     -1.27488055
  C        6.89110757      1.97085409     -0.80327705
  H        6.51586932      2.98164057     -0.59455404
  H        7.98496428      2.03901229     -0.71366633
  C       -3.07679387      4.48514752     -0.11700015
  H       -3.17439231      3.83053157     -0.99186539
  C        7.09800688      1.33692900      1.62197819
  H        6.96736415      2.38788903      1.89599280
  H        8.17542697      1.15995103      1.52695492
  H        6.74166299      0.72718179      2.45720477
  C        6.55916290      1.58871330     -2.25427192
  H        6.88747854      0.55534827     -2.43090546
  H        5.47428708      1.59863851     -2.40687627
  C        7.22834015      2.52966646     -3.26965933
  H        8.31521800      2.50936806     -3.10388449
  H        6.90978682      3.56039479     -3.05592205
  C        6.96029284      2.23938500     -4.76486104
  H        7.51978179      3.00335927     -5.32488108
  C        5.47852395      2.39784963     -5.14438530
  H        4.85580405      1.62832268     -4.67377079
  H        5.34228014      2.30942650     -6.22830596
  H        5.09054342      3.37648515     -4.83789236
  C        7.49994177      0.86932981     -5.20811554
  H        6.94826377      0.04653700     -4.73901320
  H        7.40839363      0.74676169     -6.29338934
  H        8.55859749      0.75389823     -4.94728954



