%Mem=256MB 
%NProc=48 

#P HF/6-31G* SCF(Conver=6) NoSymm Test 
   Pop=chelpg IOp(6/33=2) GFInput GFPrint 

MEP - Input generated by R.E.D.-III.x MOLECULE 

0 1 
  O        5.74843874      3.47140173      0.00000000
  H        5.11328177      3.30889887      0.71019552
  O        0.00000000      0.00000000      0.00000000
  H       -0.08129474     -0.74247201     -0.61505640
  C        8.81594282      0.40726448      0.35621753
  C        7.88831577      1.58028029     -0.06638851
  H        7.70823107      2.15655532      0.85225569
  C        6.50356610      1.16195238     -0.57517150
  H        6.62067124      0.58117214     -1.50162745
  C        5.77678847      0.29311446      0.48266648
  H        5.55250323      0.96898286      1.32470908
  C       10.09585473      1.21648186      0.76421631
  H        9.84777139      1.70196327      1.71954492
  C        8.08456031     -0.33839362      1.49079682
  H        7.98517343      0.34029570      2.35013325
  H        8.65376415     -1.20495935      1.84247790
  C        4.38921226     -0.23247435     -0.02724036
  C        8.76750788      2.46775142     -0.95946878
  H        8.41720091      3.50356665     -0.97337876
  H        8.76052056      2.11112571     -1.99750911
  C        6.68744897     -0.82170808      1.05032198
  H        6.81582372     -1.61222901      0.30374155
  H        6.19687200     -1.29571281      1.90836407
  C       10.18349196      2.32776866     -0.33405423
  H       10.92000593      2.05017309     -1.09753384
  H       10.52716400      3.27459691      0.09377548
  C        5.64405314      2.38689291     -0.95266905
  H        6.04410412      2.82049826     -1.87642233
  C       11.43940310      0.47111025      0.96045517
  H       11.69511861      0.00000000      0.00000000
  C        9.13708507     -0.55274240     -0.81184381
  H        8.23632912     -0.97588090     -1.26386777
  H        9.69303522     -0.05265773     -1.61068460
  H        9.74871203     -1.39303248     -0.46605134
  C        3.62392027      0.88711648     -0.74528563
  C        3.54626293     -0.69122809      1.20287694
  H        3.59459827      0.09762851      1.96644459
  H        4.00760490     -1.57983168      1.64685487
  C        4.19989174      2.03010734     -1.15296502
  H        3.58787120      2.79077200     -1.63683637
  C        4.55502197     -1.41999364     -1.01432859
  H        4.92923182     -2.31235341     -0.50371965
  H        3.60474429     -1.69136337     -1.48075741
  H        5.25000385     -1.17020438     -1.82162518
  C        2.14644412      0.65210558     -1.00084353
  H        1.68742668      1.55210514     -1.42158302
  H        2.02012045     -0.14573425     -1.75006252
  C        2.06771896     -0.98323784      0.90466012
  H        1.97447949     -1.84646637      0.22923598
  H        1.54441143     -1.25096120      1.82956015
  C       12.61101216      1.44376243      1.26742464
  H       13.53447712      0.84722829      1.30172374
  H       12.73329796      2.13245008      0.42397979
  C        1.38674002      0.22631907      0.26475449
  H        1.39008533      1.05939652      0.97847360
  C       11.38053996     -0.65029712      2.01496518
  H       10.96295390     -0.29964747      2.96525137
  H       12.38583006     -1.03858444      2.21744218
  H       10.76973240     -1.49270650      1.68056673
  C       12.50650730      2.24845190      2.57434393
  H       11.64962267      2.93189660      2.52910924
  H       12.29986884      1.56513089      3.40755117
  C       13.78216840      3.03733875      2.92704826
  H       14.61613324      2.32582986      3.01478986
  H       13.65649133      3.48055509      3.92619368
  C       14.20106160      4.16080342      1.95477762
  H       14.32414811      3.72388424      0.95349503
  C       15.56109607      4.74293435      2.37252582
  H       15.50229690      5.19675537      3.37030763
  H       15.89362299      5.51938482      1.67407898
  H       16.33486259      3.96725645      2.40527665
  C       13.14666180      5.27482987      1.85777578
  H       12.97502922      5.73433298      2.83997929
  H       13.47461418      6.06619187      1.17417324
  H       12.18427028      4.90300526      1.49191339



