%Mem=256MB 
%NProc=48 

#P HF/6-31G* SCF(Conver=6) NoSymm Test 
   Pop=chelpg IOp(6/33=2) GFInput GFPrint 

MEP - Input generated by R.E.D.-III.x MOLECULE 

0 1 
  O        0.00000000      0.00000000      0.00000000
  H       -0.46667854      0.46141207     -0.70956460
  O       -3.21062699      5.89700406      0.00000000
  H       -2.90597143      6.57940978      0.61455094
  C        4.19547668      1.09605094     -0.35087272
  C        2.80186689      0.55182353      0.06918511
  H        2.35660866      0.14716739     -0.85083502
  C        1.81730885      1.61165664      0.57817824
  H        2.21075976      2.05336706      1.50526398
  C        1.62998378      2.72938388     -0.47917080
  H        1.09730633      2.25949184     -1.32272664
  C        4.89112912     -0.24853864     -0.75993127
  H        4.43085024     -0.54070506     -1.71525396
  C        3.94253953      2.11103000     -1.48414455
  H        3.51569490      1.57706085     -2.34534221
  H        4.87197044      2.57245945     -1.83324986
  C        0.69596215      3.88302710      0.02937870
  C        3.11086310     -0.66007363      0.96047440
  H        2.28539036     -1.37722082      0.97089290
  H        3.28236875     -0.35090691      1.99962008
  C        2.97989379      3.23285381     -1.04315660
  H        3.48856473      3.84835438     -0.29403924
  H        2.79769690      3.89185595     -1.89996578
  C        4.40532757     -1.25292544      0.33697668
  H        5.18030857     -1.38397591      1.10155505
  H        4.22665176     -2.24392176     -0.09190160
  C        0.45660963      0.98806921      0.95390341
  H        0.58215715      0.41111833      1.87733672
  C        6.42693183     -0.28451117     -0.95765222
  H        6.88709614     -0.00000000      0.00000000
  C        4.95682674      1.76069440      0.81860075
  H        4.39295558      2.58040950      1.27127810
  H        5.18347161      1.04725460      1.61668646
  H        5.90941951      2.17730839      0.47373696
  C       -0.52998472      3.30251096      0.74672012
  C        0.19987373      4.70307700     -1.20174830
  H       -0.15623854      3.99661005     -1.96447345
  H        1.04654884      5.23696984     -1.64636000
  C       -0.60995711      2.02499657      1.15404930
  H       -1.52253709      1.67718561      1.63729932
  C        1.43701402      4.82570688      1.01641377
  H        2.20981951      5.40802883      0.50583213
  H        0.75264813      5.53885127      1.48258140
  H        1.91142715      4.25993751      1.82388245
  C       -1.68694419      4.25102461      1.00190037
  H       -2.53746622      3.70587971      1.42277784
  H       -1.39336960      5.00386612      1.75079311
  C       -0.92943927      5.70144374     -0.90470005
  H       -0.57442702      6.49454690     -0.23016854
  H       -1.24611180      6.19565542     -1.83014571
  C        6.94681919     -1.71645410     -1.25624635
  H        8.04493567     -1.66997263     -1.28831330
  H        6.70242384     -2.37517639     -0.41353963
  C       -2.12778005      5.00145326     -0.26419931
  H       -2.54543960      4.28015907     -0.97745717
  C        6.93996924      0.70442525     -2.02134427
  H        6.40416597      0.59841610     -2.97128631
  H        8.00473357      0.53413908     -2.22054105
  H        6.83312023      1.74328176     -1.69895069
  C        6.44968716     -2.37401346     -2.55470253
  H        5.35673056     -2.46196801     -2.52857218
  H        6.68849431     -1.72943107     -3.40924376
  C        7.07221346     -3.76374560     -2.76808200
  H        6.84167085     -4.38984818     -1.89385894
  H        8.16685671     -3.65900979     -2.78385825
  C        6.63970239     -4.52929429     -4.04035458
  H        7.18613067     -5.48389632     -4.01763802
  C        7.04839043     -3.80674034     -5.33482691
  H        6.49635272     -2.86889252     -5.46599641
  H        6.84289778     -4.43154670     -6.21157132
  H        8.11857381     -3.56825568     -5.33814694
  C        5.13992507     -4.86881039     -4.04744827
  H        4.52122659     -3.96794494     -4.13179872
  H        4.89081873     -5.51607734     -4.89615017
  H        4.84475987     -5.39237267     -3.13050060



