%Mem=256MB 
%NProc=48 

#P HF/6-31G* SCF(Conver=6) NoSymm Test 
   Pop=chelpg IOp(6/33=2) GFInput GFPrint 

MEP - Input generated by R.E.D.-III.x MOLECULE 

0 1 
  O        0.00000000      0.00000000      0.00000000
  H        0.96653859     -0.00000000      0.00000000
  O        4.36152495     -1.29881663     -4.93981264
  H        4.08697341     -1.10927236     -5.84803162
  C       -1.24148307      4.10125181     -0.75597245
  C       -1.13758859      2.56848985     -0.51926734
  H       -0.44224823      2.44871788      0.32379069
  C       -0.53065794      1.77000660     -1.67948156
  H       -1.19085209      1.84939193     -2.55543212
  C        0.86951799      2.32336380     -2.04602135
  H        1.52298968      2.08058889     -1.19151445
  C       -1.91828201      4.53541179      0.59151085
  H       -1.13269023      4.46787167      1.36083885
  C        0.19871550      4.60011015     -0.99516872
  H        0.78259031      4.43852124     -0.07759673
  H        0.23116267      5.67501452     -1.19873709
  C        1.49493570      1.59346202     -3.28603700
  C       -2.52044970      2.16538930      0.00977256
  H       -2.47960107      1.24404705      0.59735338
  H       -3.22165859      1.99071566     -0.81636910
  C        0.87220539      3.86505137     -2.17216720
  H        0.36850584      4.16235694     -3.09777144
  H        1.90357274      4.22527238     -2.26231547
  C       -2.95516796      3.39061441      0.85982762
  H       -3.96482491      3.71955484      0.58544014
  H       -2.99169260      3.13845132      1.92365666
  C       -0.44888681      0.26439306     -1.35025457
  H       -1.46325575     -0.15051766     -1.36688104
  C       -2.54615931      5.94797317      0.71855878
  H       -3.37779193      6.01256934      0.00000000
  C       -2.15350300      4.45963090     -1.95162956
  H       -1.82625724      3.98824189     -2.88195326
  H       -3.18922771      4.15048206     -1.78142701
  H       -2.16140313      5.54110306     -2.12382756
  C        1.28326417      0.07757545     -3.17752754
  C        3.02952278      1.87371478     -3.30862343
  H        3.42694432      1.69354830     -2.30002191
  H        3.20091509      2.93393398     -3.52345971
  C        0.41332245     -0.48603331     -2.32316100
  H        0.33252989     -1.57203939     -2.28587548
  C        0.85898385      2.07964855     -4.61697776
  H        1.13792995      3.11456694     -4.83662568
  H        1.18552805      1.47192945     -5.46449238
  H       -0.23289171      2.01946965     -4.57969672
  C        2.10619189     -0.79702775     -4.10560713
  H        1.94865204     -1.85372722     -3.86836126
  H        1.77190592     -0.65433500     -5.14567822
  C        3.83116761      1.01907374     -4.30213915
  H        3.54043851      1.25643108     -5.33616493
  H        4.89952836      1.24771862     -4.21666937
  C       -3.15176584      6.13739698      2.13194936
  H       -3.78714333      5.27627088      2.36987821
  H       -2.33235913      6.12215190      2.86528417
  C        3.60671610     -0.47178186     -4.05065311
  H        3.99002398     -0.72957824     -3.05563845
  C       -1.55813008      7.08463503      0.40252584
  H       -0.67064116      7.02279259      1.04517539
  H       -2.01699920      8.06451270      0.56429019
  H       -1.21961105      7.06027082     -0.63556571
  C       -3.99942152      7.40784273      2.31657296
  H       -3.37052857      8.30346309      2.25557475
  H       -4.70791950      7.48141490      1.47913662
  C       -4.80914727      7.43805183      3.62620733
  H       -5.49335937      6.57722055      3.63361626
  H       -5.44842791      8.33348955      3.62405518
  C       -4.00046985      7.42707461      4.94099804
  H       -3.37399902      6.52366479      4.95158141
  C       -4.94987931      7.34277485      6.14691897
  H       -5.60227083      8.22433836      6.19349226
  H       -4.39304244      7.29186297      7.08957775
  H       -5.59227736      6.45657882      6.08849007
  C       -3.07293554      8.64578921      5.06972200
  H       -3.65018344      9.57921391      5.04033918
  H       -2.52716249      8.62329674      6.01988047
  H       -2.33113942      8.68751315      4.26553807



