%Mem=256MB 
%NProc=48 

#P HF/6-31G* SCF(Conver=6) NoSymm Test 
   Pop=chelpg IOp(6/33=2) GFInput GFPrint 

MEP - Input generated by R.E.D.-III.x MOLECULE 

0 1 
  O        0.00000000      0.00000000      0.00000000
  H        0.96655961      0.00000000     -0.00000000
  O        4.35274752     -1.31586855     -4.94189722
  H        4.07840922     -1.12557166     -5.85002026
  C       -1.22693267      4.10644034     -0.75605253
  C       -1.12817009      2.57358172     -0.51824611
  H       -0.43260876      2.45175962      0.32434593
  C       -0.52518157      1.77257508     -1.67876900
  H       -1.18596894      1.85470509     -2.55393074
  C        0.87682319      2.32055514     -2.04657220
  H        1.53003417      2.07534668     -1.19254824
  C       -1.90174252      4.54437442      0.59129068
  H       -1.11594944      4.47621682      1.36034990
  C        0.21481672      4.60040539     -0.99603974
  H        0.79836280      4.43720543     -0.07854718
  H        0.25077429      5.67515411     -1.19997476
  C        1.49850365      1.58834304     -3.28708983
  C       -2.51213698      2.17576192      0.01184541
  H       -2.47428721      1.25429340      0.59942480
  H       -3.21456401      2.00364017     -0.81379886
  C        0.88536459      3.86231525     -2.17281029
  H        0.38270280      4.16151265     -3.09837765
  H        1.91811370      4.21851824     -2.26320127
  C       -2.94146079      3.40267137      0.86220140
  H       -3.95080951      3.73458728      0.59028135
  H       -2.97599432      3.15052038      1.92606043
  C       -0.44895851      0.26659932     -1.34976943
  H       -1.46493340     -0.14438282     -1.36548976
  C       -2.52577908      5.95910968      0.71530962
  H       -3.36028243      6.02166663      0.00000000
  C       -2.13846649      4.46649217     -1.95173143
  H       -1.81228041      3.99489065     -2.88237681
  H       -3.17469588      4.15905503     -1.78143329
  H       -2.14469120      5.54792273     -2.12380043
  C        1.28079394      0.07337725     -3.17867697
  C        3.03420978      1.86232110     -3.31058588
  H        3.43135205      1.68073677     -2.30213334
  H        3.20983131      2.92177402     -3.52579299
  C        0.40953920     -0.48697563     -2.32353872
  H        0.32487675     -1.57267605     -2.28611428
  C        0.86357188      2.07768469     -4.61736386
  H        1.14603584      3.11175962     -4.83641674
  H        1.18740893      1.46959952     -5.46566724
  H       -0.22846309      2.02125716     -4.57935956
  C        2.09971948     -0.80475552     -4.10701745
  H        1.93789313     -1.86073637     -3.86943643
  H        1.76565192     -0.66103201     -5.14699198
  C        3.83193214      1.00419986     -4.30433362
  H        3.54175658      1.24261745     -5.33827172
  H        4.90124623      1.22853368     -4.21934408
  C       -3.12331244      6.15743742      2.13077814
  H       -3.72589741      5.28123730      2.39536643
  H       -2.29908419      6.18977177      2.86005298
  C        3.60154656     -0.48566675     -4.05259933
  H        3.98409868     -0.74491788     -3.05767282
  C       -1.53558084      7.09133551      0.38964062
  H       -0.64079077      7.02283777      1.02125261
  H       -1.98638468      8.07348043      0.56023588
  H       -1.21008795      7.06849535     -0.65272563
  C       -4.00793276      7.40275214      2.30852907
  H       -3.42001533      8.31181317      2.13878865
  H       -4.79172320      7.39167711      1.53878879
  C       -4.64861405      7.46259303      3.70498204
  H       -3.84867044      7.43436111      4.45909844
  H       -5.24127000      6.54931533      3.85930495
  C       -5.55154754      8.68253536      4.00204349
  H       -5.91719958      8.54291186      5.03020197
  C       -6.78677048      8.74178371      3.08809203
  H       -6.50975220      8.94285914      2.04678118
  H       -7.46822534      9.53975107      3.40456881
  H       -7.34473648      7.79818900      3.10946888
  C       -4.78063405     10.01289228      3.97534191
  H       -4.43411868     10.26000665      2.96521071
  H       -5.41724714     10.83886749      4.31263841
  H       -3.90271963      9.97869900      4.63123514



