%Mem=256MB 
%NProc=48 

#P HF/6-31G* SCF(Conver=6) NoSymm Test 
   Pop=chelpg IOp(6/33=2) GFInput GFPrint 

MEP - Input generated by R.E.D.-III.x MOLECULE 

0 1 
  O        6.84057187      0.78753283     -0.00000000
  H        7.40093005      0.00000000      0.00000000
  O       10.40076882     -2.03176321      4.94689250
  H       10.08209180     -1.92262710      5.85392180
  C        2.77679241     -0.58350925      0.72893718
  C        4.08564786      0.22279418      0.50128376
  H        4.59160331     -0.27196162     -0.33993938
  C        5.08128708      0.18690628      1.66696151
  H        4.62857710      0.67486921      2.54233902
  C        5.44068877     -1.27675926      2.02837525
  H        6.02312961     -1.66311163      1.17536164
  C        2.03948048     -0.27682052     -0.62079740
  H        2.56883598     -0.86158492     -1.38742876
  C        3.20272620     -2.04733638      0.96128832
  H        3.67701246     -2.42492574      0.04399072
  H        2.34283119     -2.69606764      1.15708689
  C        6.39077834     -1.36845622      3.27358117
  C        3.61484103      1.58538215     -0.02774470
  H        4.38814821      2.07936897     -0.62255112
  H        3.36199975      2.26235605      0.79841271
  C        4.18685885     -2.17639126      2.14211802
  H        3.64761399     -1.94640210      3.06683728
  H        4.49355565     -3.22541179      2.22623388
  C        2.35299984      1.23666642     -0.86554157
  H        1.50062450      1.85540408     -0.56052806
  H        2.51173778      1.43634743     -1.92976064
  C        6.35711069      0.99467700      1.34832883
  H        6.10655307      2.06155407      1.36753076
  C        0.53020969     -0.59790059     -0.75577906
  H        0.00000000      0.00000000      0.00000000
  C        1.94989315     -0.05760856      1.92425260
  H        2.51840019     -0.05924619      2.85781041
  H        1.60239943      0.96710174      1.76137614
  H        1.06345274     -0.68028080      2.08627137
  C        7.50302873     -0.31571622      3.17672034
  C        7.05337196     -2.78082654      3.29325156
  H        7.43635001     -2.99514835      2.28574941
  H        6.28840516     -3.53678564      3.50042484
  C        7.46270391      0.72361483      2.32669763
  H        8.30064434      1.41954914      2.29766969
  C        5.61766749     -1.13970822      4.60098919
  H        4.93490408     -1.96831275      4.81148651
  H        6.29668782     -1.05834474      5.45336025
  H        5.03381271     -0.21506780      4.56526848
  C        8.68739116     -0.48263746      4.11101079
  H        9.45761573      0.26033261      3.88195285
  H        8.37113071     -0.29853564      5.15020326
  C        8.20910673     -2.94227028      4.29250543
  H        7.84127024     -2.84822441      5.32493293
  H        8.64355417     -3.94451666      4.20461771
  C       -0.04741009     -0.14010112     -2.12315806
  H       -1.13208562     -0.32112110     -2.10018656
  H        0.07080773      0.94536407     -2.21499246
  C        9.29409681     -1.89282943      4.05227660
  H        9.73207296     -2.05022519      3.05888461
  C        0.18237669     -2.07522136     -0.49206278
  H        0.80170920     -2.75594485     -1.08655410
  H       -0.86582408     -2.27298699     -0.74610225
  H        0.31685979     -2.34442364      0.55865421
  C        0.53071161     -0.82556544     -3.37311742
  H        1.59398321     -0.57828192     -3.48127687
  H        0.48892774     -1.91433715     -3.24392130
  C       -0.21721566     -0.48418892     -4.67623711
  H       -1.26857241     -0.78560328     -4.56117533
  H        0.18858910     -1.10637674     -5.48786007
  C       -0.18075510      0.98820988     -5.13847835
  H       -0.58164569      1.61503167     -4.32915970
  C       -1.08991512      1.18159250     -6.36286185
  H       -0.73897617      0.57772161     -7.20971556
  H       -1.10551798      2.22875247     -6.68611103
  H       -2.12170237      0.88190138     -6.14592001
  C        1.24571400      1.47015424     -5.44692406
  H        1.69804411      0.86264596     -6.24169180
  H        1.24227069      2.51196709     -5.78711984
  H        1.90024526      1.41290397     -4.57135710



