%Mem=256MB 
%NProc=48 

#P HF/6-31G* SCF(Conver=6) NoSymm Test 
   Pop=chelpg IOp(6/33=2) GFInput GFPrint 

MEP - Input generated by R.E.D.-III.x MOLECULE 

0 1 
  O        6.09217247      2.82507445      0.00000000
  H        5.52033934      2.56293991      0.73379369
  O        0.00000000      0.00000000      0.00000000
  H       -0.23638691     -0.56781115     -0.74691600
  C        8.78420911     -0.51161565     -0.73528721
  C        7.96774708      0.81261112     -0.77502564
  H        7.95933797      1.18572385      0.25845345
  C        6.49440245      0.65506092     -1.16905955
  H        6.43267923      0.30002269     -2.20774436
  C        5.78846816     -0.36543731     -0.23910791
  H        5.74077476      0.11431641      0.75272783
  C       10.17811656      0.07686756     -0.32136995
  H       10.02775604      0.42630715      0.70944427
  C        8.09500988     -1.42430405      0.29725237
  H        8.16410235     -0.95618312      1.28907718
  H        8.59718785     -2.39613894      0.37254654
  C        4.30000056     -0.62614493     -0.66180794
  C        8.85093365      1.78587779     -1.57474437
  H        8.63707176      2.82810430     -1.32176599
  H        8.68054633      1.67431571     -2.65326392
  C        6.61214298     -1.66317343     -0.05400205
  H        6.56540819     -2.26718027     -0.96580282
  H        6.16063436     -2.27455235      0.73580435
  C       10.30024130      1.36676071     -1.19463756
  H       10.89941654      1.18267013     -2.09220660
  H       10.81877634      2.15398806     -0.63656894
  C        5.75395709      2.00906506     -1.14643311
  H        6.10037896      2.60817933     -1.99640887
  C       11.49652693     -0.74773508     -0.27152437
  H       12.25720800     -0.00000000      0.00000000
  C        8.82959281     -1.20775327     -2.11537604
  H        7.83247004     -1.33082212     -2.54609345
  H        9.42537028     -0.64808678     -2.84092407
  H        9.26663341     -2.20713037     -2.03193127
  C        3.60220494      0.69626537     -1.00699665
  C        3.54635813     -1.27855427      0.53846669
  H        3.77247780     -0.69732094      1.44329149
  H        3.94216391     -2.28513580      0.71070592
  C        4.26414705      1.84448811     -1.22570224
  H        3.69938395      2.75043578     -1.44392052
  C        4.21254328     -1.56083945     -1.89907741
  H        4.53156655     -2.57792878     -1.65252312
  H        3.19088926     -1.62813696     -2.28112305
  H        4.83893679     -1.19420189     -2.71783178
  C        2.08825017      0.66553944     -1.10938172
  H        1.69837190      1.67741021     -1.25707273
  H        1.78637639      0.07951003     -1.99214432
  C        2.01979352     -1.35421518      0.38312195
  H        1.75010714     -2.02410188     -0.44666157
  H        1.57155071     -1.78007354      1.28794287
  C       11.53394637     -1.83889060      0.82678832
  H       10.78966413     -2.60964397      0.58900354
  H       12.50957658     -2.34167056      0.75742236
  C        1.42437272      0.02889749      0.12112170
  H        1.60547988      0.66878907      0.99357743
  C       11.98354016     -1.36582331     -1.59799300
  H       11.42318546     -2.26709478     -1.86355711
  H       13.03583899     -1.65688911     -1.50216295
  H       11.91517294     -0.66970481     -2.43899093
  C       11.33681541     -1.39337320      2.28863433
  H       10.35113818     -0.92801654      2.41711268
  H       11.32070195     -2.29961098      2.90679743
  C       12.41723484     -0.43623799      2.81512506
  H       12.42894043      0.47122885      2.19743570
  H       13.40754640     -0.90145970      2.68988354
  C       12.25205661     -0.00766389      4.28853440
  H       11.23423605      0.39615567      4.40460324
  C       13.24248474      1.11492982      4.63717975
  H       14.27854654      0.76812185      4.53161485
  H       13.11098230      1.45567915      5.67052712
  H       13.11295992      1.98154285      3.97883094
  C       12.40785384     -1.18183574      5.26878133
  H       13.40387962     -1.63433366      5.17640641
  H       12.29264345     -0.84369327      6.30489704
  H       11.66632760     -1.96800487      5.09560003



