%Mem=256MB 
%NProc=48 

#P HF/6-31G* SCF(Conver=6) NoSymm Test 
   Pop=chelpg IOp(6/33=2) GFInput GFPrint 

MEP - Input generated by R.E.D.-III.x MOLECULE 

0 1 
  O        0.00000000      0.00000000      0.00000000
  H        0.96653929     -0.00000000      0.00000000
  O        4.36153569     -1.29881141     -4.93979925
  H        4.08695881     -1.10929489     -5.84801774
  C       -1.24148597      4.10125204     -0.75596909
  C       -1.13759051      2.56848863     -0.51926706
  H       -0.44225307      2.44871551      0.32379352
  C       -0.53065807      1.77000777     -1.67948095
  H       -1.19084888      1.84939346     -2.55543294
  C        0.86951878      2.32336650     -2.04601533
  H        1.52298849      2.08059064     -1.19150719
  C       -1.91828842      4.53540802      0.59151169
  H       -1.13269812      4.46786626      1.36084257
  C        0.19871352      4.60011061     -0.99516183
  H        0.78258577      4.43851983     -0.07758825
  H        0.23116065      5.67501500     -1.19872697
  C        1.49494064      1.59346683     -3.28603151
  C       -2.52045391      2.16538612      0.00976873
  H       -2.47960790      1.24404315      0.59734706
  H       -3.22165954      1.99071580     -0.81637612
  C        0.87220649      3.86505365     -2.17215970
  H        0.36850802      4.16236148     -3.09776350
  H        1.90357360      4.22527598     -2.26230608
  C       -2.95517428      3.39060908      0.85982548
  H       -3.96483121      3.71955013      0.58543665
  H       -2.99170088      3.13844395      1.92365348
  C       -0.44888597      0.26439319     -1.35025577
  H       -1.46325542     -0.15051751     -1.36688292
  C       -2.54616794      5.94796937      0.71856170
  H       -3.37779665      6.01256585      0.00000000
  C       -2.15350338      4.45963191     -1.95162918
  H       -1.82625644      3.98824184     -2.88195149
  H       -3.18922881      4.15048501     -1.78142744
  H       -2.16140126      5.54110391     -2.12382674
  C        1.28326861      0.07758008     -3.17752529
  C        3.02952855      1.87371871     -3.30861341
  H        3.42694604      1.69355080     -2.30001080
  H        3.20092125      2.93393880     -3.52344655
  C        0.41332387     -0.48603091     -2.32316185
  H        0.33253060     -1.57203758     -2.28587994
  C        0.85899299      2.07965574     -4.61697290
  H        1.13793962      3.11457368     -4.83661766
  H        1.18553775      1.47193772     -5.46448718
  H       -0.23288316      2.01947701     -4.57969395
  C        2.10619844     -0.79702240     -4.10560367
  H        1.94865613     -1.85372213     -3.86836160
  H        1.77191615     -0.65432590     -5.14567663
  C        3.83117588      1.01907903     -4.30212666
  H        3.54044970      1.25643710     -5.33615344
  H        4.89953605      1.24772194     -4.21665378
  C       -3.15177782      6.13738966      2.13195088
  H       -3.78715358      5.27626237      2.36987772
  H       -2.33237258      6.12214606      2.86528742
  C        3.60672257     -0.47177718     -4.05064282
  H        3.99002531     -0.72957576     -3.05562744
  C       -1.55813851      7.08463173      0.40253438
  H       -0.67064967      7.02278835      1.04518432
  H       -2.01700685      8.06450895      0.56430028
  H       -1.21961617      7.06027067     -0.63555723
  C       -3.99943709      7.40783251      2.31657410
  H       -3.37054700      8.30345550      2.25557577
  H       -4.70793546      7.48140237      1.47913718
  C       -4.80916300      7.43803941      3.62620921
  H       -5.49337213      6.57720555      3.63361819
  H       -5.44844666      8.33347456      3.62405668
  C       -4.00048514      7.42706632      4.94099957
  H       -3.37401079      6.52365848      4.95158266
  C       -4.94989414      7.34276028      6.14692014
  H       -5.60228942      8.22432312      6.19349383
  H       -4.39305788      7.29185055      7.08957851
  H       -5.59228938      6.45656262      6.08849027
  C       -3.07295627      8.64578405      5.06972387
  H       -3.65020824      9.57920575      5.04034361
  H       -2.52718226      8.62329225      6.01988305
  H       -2.33116146      8.68751226      4.26553954



