%Mem=256MB 
%NProc=12 

#P HF/6-31G* SCF(Conver=6) NoSymm Test 
   Pop=mk IOp(6/33=2) GFInput GFPrint 

MEP - Input generated by R.E.D.-III.x MOLECULE 

0 1 
  C        0.99862906     -0.90895828     -1.68352729
  H        1.15724507      0.05538204     -2.18164348
  C        2.20854097     -1.81482282     -1.95095945
  H        2.35223837     -1.93459059     -3.02910037
  H        1.97145191     -2.81438629     -1.55117459
  C        3.48190301     -1.29950398     -1.30673063
  C        3.41640583     -0.93308838      0.17932720
  C        2.12625554     -0.09062890      0.42623586
  H        2.28217245      0.91022246      0.00000000
  H        1.98123820      0.04955627      1.50266075
  C        0.84247644     -0.67721012     -0.18088020
  H        0.58857351     -1.63147774      0.30400483
  H        0.00000000      0.00000000      0.00000000
  C        4.60557334     -1.19633511     -2.02850927
  H        4.59560213     -1.46157092     -3.08335385
  C        5.94392668     -0.77370938     -1.49834457
  H        6.26289511      0.16378261     -1.97980170
  C        6.00659991     -0.62976197      0.03119832
  H        6.16746318     -1.63674530      0.43824842
  C        4.66126279     -0.06310558      0.56544376
  H        4.51792936      0.90127023      0.05129066
  C        4.74838265      0.24531599      2.07749901
  H        4.78846700     -0.69159066      2.64368133
  H        3.83358647      0.75398394      2.40028911
  C        5.95448219      1.11717455      2.47681311
  H        5.84505784      2.11707386      2.03247521
  H        5.93574762      1.25665318      3.56204166
  C        7.28932860      0.50959703      2.00041198
  C        7.15693089      0.29832241      0.46384398
  H        6.90045563      1.29301695      0.06035285
  C        8.59112758      0.00000000      0.00000000
  H        8.74097584      0.23157827     -1.05912497
  H        8.82590924     -1.06214677      0.12224673
  C        9.46912579      0.88639725      0.92364122
  H       10.27967617      0.29787120      1.36975141
  H        9.94861168      1.69332948      0.36134428
  C        8.53535346      1.46244874      2.04122527
  H        8.17395223      2.44825282      1.70707363
  C        7.59333333     -0.80664537      2.75195312
  H        6.83114380     -1.57071780      2.57955583
  H        8.55355878     -1.23675940      2.45213409
  H        7.63709402     -0.63298802      3.83208031
  C        9.28455169      1.69357410      3.38016896
  H        9.70429817      0.72740565      3.69398827
  C        8.37450278      2.20544107      4.50968438
  H        7.86949516      3.13504294      4.21787002
  H        8.94869913      2.41321263      5.41760405
  H        7.60552013      1.47907724      4.78103694
  C        3.35017099     -2.24331037      1.00886147
  H        3.14828662     -2.03781695      2.06477346
  H        2.55498801     -2.90271404      0.65150268
  H        4.28689368     -2.80415832      0.93895291
  O        6.93887433     -1.77845098     -1.82020421
  O        7.12700591     -1.77211947     -3.26754455
  H        8.04425836     -1.45692597     -3.32084758
  O       -0.19364750     -1.42111587     -2.28534716
  H       -0.39198119     -2.28346128     -1.89392677
  C       10.46600632      2.67223225      3.15509390
  H       11.07640184      2.31266088      2.31860917
  H       10.05175463      3.64019486      2.83529490
  C       11.40886337      2.91345669      4.35002661
  H       12.15709667      3.65590779      4.03779513
  H       10.85983094      3.37695699      5.17762555
  C       12.14390792      1.65636305      4.84107732
  H       12.57914996      1.14466262      3.97012897
  H       11.42753502      0.94815865      5.28210800
  C       13.26860547      1.91470775      5.86470027
  H       13.96292484      2.64286724      5.41728306
  C       12.74266072      2.51298399      7.17963632
  H       12.02180313      1.83420040      7.65408399
  H       13.56089091      2.67575554      7.89034263
  H       12.24440048      3.47527854      7.02517475
  C       14.05661354      0.62400350      6.13869443
  H       13.40984635     -0.14111542      6.58712463
  H       14.88639981      0.80375548      6.83174838
  H       14.47468608      0.20673491      5.21539454



