%Mem=256MB 
%NProc=12 

#P HF/6-31G* SCF(Conver=6) NoSymm Test 
   Pop=mk IOp(6/33=2) GFInput GFPrint 

MEP - Input generated by R.E.D.-III.x MOLECULE 

0 1 
  C        0.99794557     -0.90714106     -1.68487264
  H        1.15584456      0.05773144     -2.18218549
  C        2.20803926     -1.81232183     -1.95373735
  H        2.35124711     -1.93097770     -3.03206122
  H        1.97141285     -2.81234866     -1.55483872
  C        3.48158237     -1.29734382     -1.30964097
  C        3.41688735     -0.93228199      0.17679928
  C        2.12641008     -0.09062401      0.42517866
  H        2.28179727      0.91074813      0.00000000
  H        1.98168482      0.04834111      1.50179229
  C        0.84249555     -0.67690027     -0.18195458
  H        0.58893920     -1.63166383      0.30212148
  H        0.00000000      0.00000000      0.00000000
  C        4.60475302     -1.19321021     -2.03206287
  H        4.59416832     -1.45751529     -3.08712494
  C        5.94318921     -0.77047296     -1.50231861
  H        6.26152446      0.16745427     -1.98337756
  C        6.00672091     -0.62764755      0.02728270
  H        6.16763533     -1.63499779      0.43329861
  C        4.66148120     -0.06211105      0.56334409
  H        4.51727087      0.90296410      0.05077297
  C        4.74913297      0.24400775      2.07593368
  H        4.79224345     -0.69370376      2.64051829
  H        3.83329336      0.74974852      2.40030761
  C        5.95346849      1.11834673      2.47434459
  H        5.84110143      2.11787002      2.02983763
  H        5.93796818      1.25793265      3.55977079
  C        7.28842807      0.51333469      1.99577916
  C        7.15741138      0.30024462      0.45967336
  H        6.90249061      1.29443940      0.05387482
  C        8.59281931      0.00000000      0.00000000
  H        8.74435701      0.22250791     -1.06077449
  H        8.82856720     -1.06077018      0.13191848
  C        9.46720694      0.89650438      0.91769657
  H       10.28677134      0.31950422      1.36199739
  H        9.93510964      1.70438442      0.34720164
  C        8.53141166      1.46882969      2.03688149
  H        8.16848653      2.45503203      1.70560427
  C        7.59477556     -0.80323557      2.74656577
  H        6.83646798     -1.56992522      2.56890542
  H        8.55789321     -1.22933801      2.45037362
  H        7.63264411     -0.63219249      3.82717242
  C        9.28223852      1.69304203      3.37440836
  H        9.70488182      0.72335629      3.67609284
  C        8.37194370      2.18546777      4.51496895
  H        7.82195518      3.08556655      4.21332537
  H        8.96390971      2.44543083      5.39792120
  H        7.64030435      1.43432787      4.82335480
  C        3.35151391     -2.24333162      1.00515313
  H        3.15038854     -2.03879060      2.06139503
  H        2.55603800     -2.90244387      0.64787356
  H        4.28825456     -2.80405336      0.93406519
  O        6.93848974     -1.77456547     -1.82517213
  O        7.12483590     -1.76834311     -3.27279316
  H        8.04254493     -1.45472109     -3.32716739
  O       -0.19444263     -1.41920285     -2.28656660
  H       -0.39232687     -2.28194904     -1.89580299
  C       10.47320053      2.68303003      3.18406692
  H       10.64336811      2.86367138      2.11763830
  H       10.19720456      3.65962928      3.60655015
  C       11.81596838      2.23403445      3.79330707
  H       12.10652178      1.27361969      3.34212323
  H       12.58280979      2.95702742      3.48804392
  C       11.83185224      2.08963876      5.32239960
  H       11.06046279      1.36937081      5.62482890
  H       11.55171335      3.04992657      5.78270542
  C       13.17687302      1.62595705      5.92080217
  H       13.46673159      0.69725939      5.40503305
  C       14.30344528      2.65148501      5.71360413
  H       14.05055146      3.60711712      6.19128622
  H       15.24059843      2.29718594      6.15777931
  H       14.49609765      2.84804929      4.65432709
  C       13.01778263      1.30077279      7.41469742
  H       12.72275203      2.19441652      7.97967225
  H       13.95633111      0.93241996      7.84434286
  H       12.25047168      0.53537412      7.57826564



