%Mem=256MB 
%NProc=12 

#P HF/6-31G* SCF(Conver=6) NoSymm Test 
   Pop=mk IOp(6/33=2) GFInput GFPrint 

MEP - Input generated by R.E.D.-III.x MOLECULE 

0 1 
  C        0.99839063     -0.91167084     -1.68217854
  H        1.15765711      0.05207382     -2.18126177
  C        2.20784170     -1.81860101     -1.94810579
  H        2.35190838     -1.93968145     -3.02605583
  H        1.96978665     -2.81752619     -1.54737380
  C        3.48144730     -1.30375687     -1.30394630
  C        3.41568968     -0.93576163      0.18165209
  C        2.12592107     -0.09225584      0.42722450
  H        2.28269311      0.90802363      0.00000000
  H        1.98055523      0.04916687      1.50346903
  C        0.84184013     -0.67827571     -0.17985738
  H        0.58665752     -1.63172513      0.30592542
  H        0.00000000      0.00000000      0.00000000
  C        4.60551098     -1.20270421     -2.02543568
  H        4.59560859     -1.46921313     -3.07995300
  C        5.94404730     -0.78078261     -1.49534894
  H        6.26469866      0.15492361     -1.97914972
  C        6.00612623     -0.63308898      0.03383890
  H        6.16730367     -1.63899028      0.44343636
  C        4.66079386     -0.06594869      0.56739226
  H        4.51766767      0.89827987      0.05293411
  C        4.74876313      0.24284138      2.07926564
  H        4.79124797     -0.69392402      2.64553122
  H        3.83332592      0.74976479      2.40296487
  C        5.95351765      1.11732400      2.47687643
  H        5.84173692      2.11647457      2.03142295
  H        5.93571906      1.25802916      3.56194989
  C        7.28917882      0.51186597      2.00002306
  C        7.15579412      0.29708745      0.46407939
  H        6.89779405      1.29061696      0.05865407
  C        8.59008049      0.00000000      0.00000000
  H        8.73839216      0.22691995     -1.06033875
  H        8.82755199     -1.06094838      0.12721968
  C        9.46651939      0.89317814      0.91861216
  H       10.28220898      0.31051756      1.36323337
  H        9.93917400      1.70110773      0.35197186
  C        8.53319440      1.46756953      2.03774596
  H        8.16881149      2.45222707      1.70362223
  C        7.59719889     -0.80236650      2.75348465
  H        6.83569640     -1.56787451      2.58455182
  H        8.55724269     -1.23157705      2.45180496
  H        7.64368063     -0.62691701      3.83318053
  C        9.28334932      1.70150119      3.37514620
  H        9.71225735      0.73850417      3.69228346
  C        8.37175711      2.21000044      4.50584917
  H        7.85744493      3.13318893      4.20996415
  H        8.94756480      2.42681781      5.41034118
  H        7.60963315      1.47855315      4.78299258
  C        3.34843642     -2.24500825      1.01261573
  H        3.14787862     -2.03778286      2.06844265
  H        2.55195405     -2.90367394      0.65675355
  H        4.28437724     -2.80716088      0.94242675
  O        6.93795371     -1.78773970     -1.81368486
  O        7.12649338     -1.78619670     -3.26100193
  H        8.04455282     -1.47351876     -3.31500297
  O       -0.19396017     -1.42378255     -2.28386502
  H       -0.39280930     -2.28570550     -1.89177464
  C       10.46713137      2.67765339      3.15922418
  H       11.05024611      2.35234847      2.28967858
  H       10.05888088      3.66517743      2.89933251
  C       11.43532358      2.80433799      4.34790977
  H       10.93607671      3.27181661      5.20429705
  H       11.71637606      1.79455648      4.67939413
  C       12.72913945      3.57495877      4.02579534
  H       13.25671599      3.04947289      3.21658578
  H       13.39349236      3.52747808      4.90141691
  C       12.57122933      5.05641409      3.62165400
  H       11.92249840      5.10401632      2.73520755
  C       11.91975541      5.90059867      4.72853699
  H       12.51859940      5.86606452      5.64803944
  H       11.84017564      6.95040343      4.42407930
  H       10.91132259      5.55251303      4.97467741
  C       13.93453347      5.64608483      3.22615097
  H       14.62876044      5.63060163      4.07625023
  H       13.83780090      6.68658996      2.89568408
  H       14.39499513      5.07649513      2.41068600



