%Mem=256MB 
%NProc=12 

#P HF/6-31G* SCF(Conver=6) NoSymm Test 
   Pop=mk IOp(6/33=2) GFInput GFPrint 

MEP - Input generated by R.E.D.-III.x MOLECULE 

0 1 
  C        7.52134184      2.21459827      0.06259711
  H        7.36013719      2.18191816      1.14711273
  C        6.82706712      1.00733702     -0.58277567
  H        7.20891234      0.08049231     -0.14401495
  H        7.10839249      0.99138660     -1.64846012
  C        5.31597763      1.06255197     -0.45748636
  C        4.62457539      2.35960348     -0.88937909
  C        5.41256871      3.56487893     -0.28783668
  H        5.21177995      3.60267072      0.79194943
  H        5.02790420      4.50011299     -0.70817702
  C        6.93441230      3.51198659     -0.49258113
  H        7.18152528      3.58792704     -1.56184917
  H        7.40788696      4.36889234      0.00000000
  C        4.64073769     -0.00000000      0.00000000
  H        5.18171799     -0.89381778      0.30254720
  C        3.14758804     -0.10239852      0.10384700
  H        2.84774488     -0.20956313      1.15792089
  C        2.38323628      1.06205010     -0.54730925
  H        2.32772280      0.84152018     -1.62120892
  C        3.16078468      2.39190528     -0.33042825
  H        3.26452475      2.50215933      0.76140807
  C        2.34374999      3.60888097     -0.82475561
  H        2.29277975      3.60169724     -1.91876355
  H        2.86486239      4.53290565     -0.55222747
  C        0.91159659      3.67280429     -0.26029480
  H        0.95822513      3.83139022      0.82622783
  H        0.40391878      4.54743348     -0.68367371
  C        0.12662018      2.37884779     -0.54466920
  C        0.96493427      1.20064789      0.03632924
  H        1.11252260      1.45039120      1.10059210
  C        0.00000000      0.00000000      0.00000000
  H        0.26276859     -0.76187534      0.74047577
  H        0.03078049     -0.49221517     -0.97718809
  C       -1.39415271      0.63171861      0.27394694
  H       -2.11146870      0.33183397     -0.49672474
  H       -1.81491406      0.29849484      1.22915824
  C       -1.18925771      2.17909744      0.28522612
  H       -0.90023152      2.43665688      1.31375857
  C       -0.10582528      2.22078303     -2.06539686
  H        0.82769785      2.04999898     -2.60749333
  H       -0.76915073      1.38413094     -2.29841647
  H       -0.55679194      3.12534602     -2.48307655
  C       -2.50873755      2.96535532      0.03691532
  H       -3.21266648      2.51751945      0.75498776
  C       -3.16936494      2.79873077     -1.34661152
  H       -2.66960549      3.39372480     -2.11665745
  H       -4.20947061      3.14079449     -1.29948454
  H       -3.18519226      1.75887865     -1.68569437
  C        4.65012413      2.44182175     -2.43918143
  H        4.30546459      3.41861551     -2.79274676
  H        5.66018665      2.29577991     -2.83078545
  H        4.01799978      1.66951681     -2.88736697
  O        2.68702165     -1.28767187     -0.59314688
  O        3.16308500     -2.45267910      0.14602858
  H        2.31737985     -2.82137795      0.44996809
  O        8.94306245      2.15128242     -0.08127098
  H        9.15972685      2.16908984     -1.02410027
  C       -2.43494300      4.47472065      0.37503098
  H       -1.73764626      4.96408217     -0.31681793
  H       -3.42117143      4.90849333      0.15496362
  C       -2.06093307      4.86243930      1.81809338
  H       -1.05017492      4.51046927      2.05247196
  H       -2.01327379      5.95970004      1.86760859
  C       -3.05150159      4.36900993      2.88472136
  H       -3.02142371      3.27177233      2.95039066
  H       -4.07041139      4.62562633      2.55949152
  C       -2.83196619      4.94817710      4.29749123
  H       -2.84069435      6.04583810      4.21069548
  C       -3.98293510      4.54350755      5.23208153
  H       -4.02205849      3.45343994      5.35470415
  H       -3.86093369      4.98464725      6.22789316
  H       -4.95223434      4.86879372      4.83715471
  C       -1.47942852      4.53478572      4.90017998
  H       -1.40841611      3.44216867      4.98188016
  H       -1.35602755      4.95036434      5.90672770
  H       -0.63511675      4.88074851      4.29552360



