%Mem=256MB 
%NProc=12 

#P HF/6-31G* SCF(Conver=6) NoSymm Test 
   Pop=mk IOp(6/33=2) GFInput GFPrint 

MEP - Input generated by R.E.D.-III.x MOLECULE 

0 1 
  C        0.99801546     -0.90787987     -1.68447787
  H        1.15572752      0.05689140     -2.18205348
  C        2.20849184     -1.81272828     -1.95297623
  H        2.35195942     -1.93146749     -3.03125657
  H        1.97218636     -2.81275697     -1.55400962
  C        3.48171315     -1.29719503     -1.30858653
  C        3.41640923     -0.93357351      0.17808846
  C        2.12633285     -0.09112126      0.42571001
  H        2.28243698      0.90990885      0.00000000
  H        1.98139072      0.04855278      1.50222829
  C        0.84233066     -0.67719300     -0.18161116
  H        0.58841161     -1.63175652      0.30267558
  H        0.00000000      0.00000000      0.00000000
  C        4.60459611     -1.19090758     -2.03110678
  H        4.59419888     -1.45385655     -3.08650246
  C        5.94261719     -0.76730142     -1.50092106
  H        6.25845307      0.17342609     -1.97818352
  C        6.00663782     -0.63024488      0.02914545
  H        6.16687080     -1.63903084      0.43189646
  C        4.66152670     -0.06483217      0.56643824
  H        4.51820419      0.90115744      0.05529748
  C        4.74818455      0.23900960      2.07975987
  H        4.78712412     -0.69965514      2.64294327
  H        3.83333691      0.74706916      2.40332986
  C        5.95470765      1.10878350      2.48230749
  H        5.84516570      2.11064106      2.04242789
  H        5.93908900      1.24294004      3.56857555
  C        7.28771975      0.50158703      2.00234199
  C        7.15727522      0.29568000      0.46528020
  H        6.90021996      1.29169962      0.06570111
  C        8.59291272      0.00000000      0.00000000
  H        8.74542525      0.25134232     -1.05427117
  H        8.82307445     -1.06522431      0.10189651
  C        9.47451452      0.86334548      0.94352853
  H       10.26018453      0.25198982      1.40286128
  H        9.98744162      1.66156258      0.39778139
  C        8.53309972      1.45374055      2.04314115
  H        8.17034318      2.43107102      1.69163881
  C        7.58955818     -0.81585592      2.75209572
  H        6.82524853     -1.57788693      2.58027288
  H        8.54820449     -1.24887195      2.45136308
  H        7.63400678     -0.64251596      3.83243641
  C        9.26815420      1.69159645      3.38575083
  H        9.64353048      0.71672662      3.72971697
  C        8.36421367      2.25000605      4.50115447
  H        7.80830907      3.13622271      4.17561168
  H        8.96508092      2.53696862      5.37223370
  H        7.63326913      1.51240197      4.84190674
  C        3.34928361     -2.24527011      1.00530021
  H        3.14537346     -2.04163812      2.06117807
  H        2.55504527     -2.90444737      0.64543487
  H        4.28644604     -2.80557139      0.93621595
  O        6.93983600     -1.76773915     -1.82870176
  O        7.12518609     -1.75502101     -3.27633955
  H        8.04116386     -1.43622187     -3.33019807
  O       -0.19416737     -1.42041249     -2.28611789
  H       -0.39203443     -2.28298567     -1.89496508
  C       10.52935399      2.58215452      3.21332152
  H       11.03438131      2.63008060      4.18912465
  H       11.23240080      2.07950542      2.53968206
  C       10.28853356      4.01982461      2.72196998
  H        9.88595517      4.00735426      1.70144576
  H        9.51644073      4.49254869      3.34178442
  C       11.53987335      4.91730735      2.77498051
  H       11.89179940      4.95967689      3.81595564
  H       11.24672010      5.94482923      2.51285743
  C       12.72825015      4.51434412      1.87592853
  H       13.02658290      3.48868224      2.13598831
  C       12.36705099      4.53673183      0.38217747
  H       12.04410048      5.54004776      0.07498335
  H       13.23124435      4.26336095     -0.23391409
  H       11.55842726      3.83885301      0.14206039
  C       13.93389534      5.42740784      2.15108217
  H       13.69731978      6.47142101      1.90822042
  H       14.80109046      5.13479756      1.54810859
  H       14.23060699      5.39051303      3.20557001



