%Mem=256MB 
%NProc=12 

#P HF/6-31G* SCF(Conver=6) NoSymm Test 
   Pop=mk IOp(6/33=2) GFInput GFPrint 

MEP - Input generated by R.E.D.-III.x MOLECULE 

0 1 
  C        1.75938110     -1.24788182     -0.07078747
  H        1.87285448     -1.12251743     -1.15460109
  C        3.15105140     -1.31120811      0.57364109
  H        3.72952063     -2.12708564      0.12968801
  H        3.01445533     -1.56392716      1.63787891
  C        3.91293308     -0.00442191      0.45621822
  C        3.18717400      1.27132505      0.89487121
  C        1.74693542      1.25391225      0.29432043
  H        1.82176097      1.44993701     -0.78440891
  H        1.16319548      2.07717954      0.71962176
  C        0.97746619     -0.06126860      0.49184341
  H        0.78147171     -0.23588819      1.56016493
  H        0.00000000      0.00000000      0.00000000
  C        5.17233043      0.00000000      0.00000000
  H        5.63826156     -0.93363814     -0.30717863
  C        6.05829994      1.20694937     -0.09548525
  H        6.31390828      1.40665282     -1.14774272
  C        5.48123776      2.47369828      0.55751557
  H        5.69736127      2.40335089      1.63170397
  C        3.94281898      2.52763559      0.34120429
  H        3.79311316      2.50450701     -0.75057011
  C        3.35691384      3.86636970      0.84461950
  H        3.38885979      3.89478898      1.93918729
  H        2.29781489      3.92777399      0.57192787
  C        4.07200890      5.11590579      0.29573280
  H        3.91676754      5.17709095     -0.79118837
  H        3.59823160      6.00305962      0.72696492
  C        5.58805980      5.08333030      0.57608310
  C        6.12148122      3.74893606     -0.02209771
  H        5.82183566      3.77236425     -1.08403858
  C        7.64921861      3.91139411      0.00000000
  H        8.14524800      3.27035763     -0.73539035
  H        8.05504399      3.63418816      0.97807432
  C        7.86336962      5.41967404     -0.29827578
  H        8.54948030      5.86649962      0.43121627
  H        8.32043468      5.56784397     -1.28127274
  C        6.46078667      6.11308120     -0.22401686
  H        6.04077861      6.13979639     -1.24224581
  C        5.86939980      5.20246656      2.09157926
  H        5.43631199      4.37694763      2.66204080
  H        6.94151436      5.21596637      2.30908654
  H        5.44431798      6.12866406      2.49163645
  C        6.54944583      7.58453979      0.25930313
  H        7.02980972      7.58316761      1.24973993
  C        5.17567373      8.26431803      0.39801037
  H        4.61610439      8.21274084     -0.54453953
  H        5.28171318      9.32062005      0.66203804
  H        4.56230083      7.80348553      1.17534053
  C        3.10557471      1.28580363      2.44483991
  H        2.46338923      2.09640626      2.80327526
  H        2.69093404      0.35146208      2.83208185
  H        4.09651799      1.40651740      2.89252522
  O        7.30300211      0.95872549      0.60605990
  O        8.03590052     -0.06351704     -0.13430047
  H        8.80119438      0.45499114     -0.43261857
  O        1.05232629     -2.48378041      0.06570985
  H        0.92160411     -2.66314866      1.00747301
  C        7.46078766      8.40425641     -0.68827055
  H        8.38156084      7.84253173     -0.88212574
  H        6.95676107      8.50566689     -1.66189698
  C        7.86420973      9.79747671     -0.17724709
  H        6.97532089     10.42514184     -0.04817550
  H        8.31597406      9.69053695      0.81838815
  C        8.85068512     10.49863154     -1.12558227
  H        8.39219838     10.56322668     -2.12308889
  H        9.73936289      9.86157118     -1.24234727
  C        9.31941195     11.91417697     -0.71516118
  H       10.01497221     12.24059668     -1.50250778
  C        8.16882275     12.93383991     -0.67996823
  H        7.45856247     12.71533952      0.12580756
  H        8.55122983     13.94701626     -0.51134313
  H        7.61198517     12.94015829     -1.62442250
  C       10.10221733     11.91861081      0.60836232
  H        9.45971792     11.66434728      1.45925163
  H       10.52842391     12.90883910      0.80586184
  H       10.92830783     11.19805027      0.58591818



