%Mem=256MB 
%NProc=12 

#P HF/6-31G* SCF(Conver=6) NoSymm Test 
   Pop=mk IOp(6/33=2) GFInput GFPrint 

MEP - Input generated by R.E.D.-III.x MOLECULE 

0 1 
  C        1.75859991     -1.24832817     -0.06993641
  H        1.87103945     -1.12798893     -1.15437956
  C        3.15122437     -1.30884378      0.57361369
  H        3.72792492     -2.12834475      0.13320824
  H        3.01397788     -1.55538693      1.63908553
  C        3.91451455     -0.00373537      0.45258148
  C        3.19081133      1.27896628      0.87710321
  C        1.74866854      1.25429213      0.28107135
  H        1.81906197      1.44420745     -0.79900546
  H        1.16694228      2.08015302      0.70336426
  C        0.97903125     -0.05904493      0.48892784
  H        0.78702327     -0.22758765      1.55906610
  H        0.00000000      0.00000000      0.00000000
  C        5.17560054      0.00000000     -0.00000000
  H        5.63616141     -0.93675056     -0.31573619
  C        6.06045666      1.20695796     -0.10748626
  H        6.29386098      1.39574818     -1.16803524
  C        5.48253183      2.47898751      0.53134719
  H        5.69141946      2.41505173      1.60474927
  C        3.94614061      2.52859221      0.30343826
  H        3.80029459      2.48384187     -0.78873372
  C        3.34954211      3.87410067      0.77506379
  H        3.36457156      3.92217337      1.86930709
  H        2.29478552      3.93082053      0.48448760
  C        4.07349801      5.11431821      0.21597749
  H        3.93595507      5.15639838     -0.87430322
  H        3.59172324      6.00829886      0.62379914
  C        5.58450727      5.08660539      0.52180109
  C        6.13064301      3.74682076     -0.05292391
  H        5.85128206      3.75963409     -1.12143233
  C        7.65787911      3.91053159      0.00000000
  H        8.17413337      3.25752302     -0.70829150
  H        8.04066587      3.64748116      0.99135660
  C        7.87500353      5.41540403     -0.31240110
  H        8.54751224      5.87258780      0.42344809
  H        8.34977018      5.55218443     -1.28879379
  C        6.47085731      6.10877306     -0.27258719
  H        6.06981132      6.12427912     -1.29881786
  C        5.83953727      5.22173861      2.04079690
  H        5.40449276      4.39760618      2.61176876
  H        6.90771553      5.24484269      2.27514459
  H        5.40082856      6.14841540      2.42524606
  C        6.54966472      7.58542924      0.19579336
  H        7.01214917      7.59617145      1.19469783
  C        5.17436830      8.26764875      0.30273098
  H        4.63510980      8.21500874     -0.65168232
  H        5.27639073      9.32418123      0.56776942
  H        4.54384354      7.80856940      1.06720485
  C        3.11544462      1.31068202      2.42693898
  H        2.48239244      2.13166320      2.77747008
  H        2.69170221      0.38499428      2.82589838
  H        4.10941619      1.42732942      2.86831818
  O        7.39381549      0.89665959      0.37148386
  O        7.33799304      0.63600929      1.80505379
  H        7.38076108     -0.33420399      1.81876737
  O        1.05433079     -2.48460667      0.07330046
  H        0.89177977     -2.64173761      1.01409021
  C        7.47867980      8.39407083     -0.74428427
  H        8.41550533      7.84313129     -0.88777679
  H        7.00451375      8.45092965     -1.73495801
  C        7.83918950      9.80598127     -0.25136394
  H        6.95137054     10.44853617     -0.23737060
  H        8.17536849      9.73661723      0.79300058
  C        8.95430069     10.49029257     -1.06367357
  H        9.86099305      9.87107886     -1.00305107
  H        9.20656675     11.44539227     -0.57929988
  C        8.65543711     10.77012726     -2.55208038
  H        8.42036460      9.81398588     -3.04128656
  C        7.45139892     11.70608640     -2.74310983
  H        7.62634401     12.67114877     -2.24974725
  H        7.27505884     11.90455899     -3.80646088
  H        6.52966762     11.28336012     -2.33034649
  C        9.90114056     11.34681234     -3.24376654
  H       10.18452224     12.30978076     -2.79956295
  H        9.72224652     11.51400008     -4.31210021
  H       10.75940385     10.67167470     -3.14891731



