%Mem=256MB 
%NProc=12 

#P HF/6-31G* SCF(Conver=6) NoSymm Test 
   Pop=mk IOp(6/33=2) GFInput GFPrint 

MEP - Input generated by R.E.D.-III.x MOLECULE 

0 1 
  C        1.75955218     -1.24758977     -0.07228529
  H        1.87308492     -1.12122164     -1.15596994
  C        3.15117947     -1.31156664      0.57213523
  H        3.72961618     -2.12715650      0.12760708
  H        3.01448525     -1.56500425      1.63620777
  C        3.91310337     -0.00469655      0.45552613
  C        3.18728290      1.27089036      0.89482198
  C        1.74692760      1.25391938      0.29459016
  H        1.82142499      1.45069846     -0.78402871
  H        1.16326657      2.07682696      0.72065985
  C        0.97765628     -0.06146269      0.49143492
  H        0.78214366     -0.23680360      1.55972199
  H        0.00000000      0.00000000      0.00000000
  C        5.17275297      0.00000000     -0.00000000
  H        5.63887804     -0.93347911     -0.30739342
  C        6.05871031      1.20705683     -0.09471113
  H        6.31468971      1.40706159     -1.14680699
  C        5.48140551      2.47372404      0.55830004
  H        5.69789607      2.40367878      1.63245445
  C        3.94302130      2.52724601      0.34159974
  H        3.79399331      2.50386218     -0.75026218
  C        3.35630147      3.86602250      0.84405589
  H        3.38664501      3.89472602      1.93868762
  H        2.29758458      3.92716180      0.56988601
  C        4.07192283      5.11570277      0.29592223
  H        3.91749191      5.17736613     -0.79107234
  H        3.59740901      6.00253543      0.72707273
  C        5.58774690      5.08325780      0.57725501
  C        6.12129844      3.74900756     -0.02133195
  H        5.82112595      3.77269461     -1.08309335
  C        7.64913158      3.91129891      0.00000000
  H        8.14432955      3.27200517     -0.73750335
  H        8.05587998      3.63153690      0.97699100
  C        7.86364835      5.42029320     -0.29430062
  H        8.54649266      5.86525426      0.43925403
  H        8.32444178      5.57232832     -1.27500390
  C        6.46077115      6.11280867     -0.22275981
  H        6.04204205      6.13788216     -1.24163916
  C        5.86811499      5.20269919      2.09279271
  H        5.43381558      4.37789542      2.66335659
  H        6.94010412      5.21538897      2.31096863
  H        5.44333976      6.12953076      2.49191158
  C        6.54929738      7.58528851      0.25833617
  H        7.02340644      7.58006594      1.24997344
  C        5.17770783      8.26872456      0.39122401
  H        4.62751398      8.23546712     -0.55773786
  H        5.28484914      9.32041000      0.67347755
  H        4.55462131      7.79820124      1.15473037
  C        3.10602969      1.28430906      2.44479414
  H        2.46467690      2.09513368      2.80418948
  H        2.69068022      0.34997603      2.83124089
  H        4.09716871      1.40348977      2.89237255
  O        7.30315545      0.95874996      0.60722913
  O        8.03677303     -0.06272016     -0.13346763
  H        8.80145714      0.45656088     -0.43204026
  O        1.05246104     -2.48359012      0.06314442
  H        0.92181762     -2.66373521      1.00477377
  C        7.46313179      8.39320113     -0.69897749
  H        8.41778906      7.86695313     -0.81418816
  H        6.99584504      8.39715091     -1.69519783
  C        7.77822126      9.84797220     -0.29973743
  H        8.39514371     10.28497451     -1.09786704
  H        6.85764706     10.44234905     -0.27856086
  C        8.53083905      9.99063299      1.03252383
  H        9.37824683      9.28940463      1.03084358
  H        7.88385416      9.68240329      1.86658418
  C        9.07105072     11.40455456      1.32999252
  H        9.69628954     11.70687159      0.47549932
  C        7.94875164     12.44414654      1.48264385
  H        7.27786490     12.17280993      2.30833801
  H        8.36091426     13.43533484      1.70347498
  H        7.34314102     12.53408546      0.57529649
  C        9.96371737     11.38966264      2.58094074
  H        9.38896735     11.09305507      3.46778388
  H       10.38916425     12.38025443      2.77817830
  H       10.79452820     10.68317947      2.47132635



