%Mem=256MB 
%NProc=12 

#P HF/6-31G* SCF(Conver=6) NoSymm Test 
   Pop=mk IOp(6/33=2) GFInput GFPrint 

MEP - Input generated by R.E.D.-III.x MOLECULE 

0 1 
  C       -1.00929040      1.97926413      1.69047511
  H       -0.99509093      0.99983213      2.18418651
  C        0.31934545      2.69705020      1.96518262
  H        0.47575287      2.78965626      3.04422044
  H        0.23237858      3.72232547      1.56974915
  C        1.50562774      2.00389276      1.32146695
  C        1.39208873      1.65854572     -0.16678231
  C       -0.00671532      1.01510391     -0.42098903
  H        0.00000000      0.00000000      0.00000000
  H       -0.16778402      0.90335156     -1.49841621
  C       -1.19298122      1.77983571      0.18634616
  H       -1.30357159      2.76317852     -0.29428965
  H       -2.12462158      1.23355338      0.00000000
  C        2.59939097      1.73296040      2.04572396
  H        2.62470149      1.99090768      3.10210008
  C        3.86295689      1.12118332      1.51651551
  H        4.03743064      0.14271562      1.99045217
  C        3.91024901      0.98287085     -0.01412386
  H        4.21228600      1.96110916     -0.40995576
  C        2.49794472      0.61810877     -0.55515024
  H        2.21532785     -0.31713336     -0.04474778
  C        2.53755122      0.30393526     -2.06928332
  H        2.71553696      1.22487516     -2.63465950
  H        1.55712772     -0.06357030     -2.39078188
  C        3.60171194     -0.73729934     -2.46583065
  H        3.34163936     -1.70755443     -2.02000582
  H        3.57374030     -0.87414124     -3.55323690
  C        5.00775466     -0.32775492     -1.98969788
  C        4.91795583     -0.09629995     -0.45125150
  H        4.52632074     -1.04231085     -0.04071813
  C        6.38801190      0.00000000     -0.00000000
  H        6.51369974     -0.26766252      1.05374849
  H        6.75964417      1.02397030     -0.10729935
  C        7.13624127     -0.97789333     -0.94950667
  H        7.98473233     -0.47765635     -1.42719650
  H        7.55191502     -1.83607799     -0.40982895
  C        6.09402537     -1.45905196     -2.00720889
  H        5.58784534     -2.32516766     -1.55828900
  C        5.47190106      0.94551176     -2.73470513
  H        4.87224443      1.81919912     -2.46739328
  H        6.51412393      1.19462146     -2.52014994
  H        5.38023153      0.81411136     -3.81653646
  C        6.75743935     -2.01551592     -3.29999714
  H        7.49704335     -2.73572635     -2.91830314
  C        7.56133624     -1.01613633     -4.15650705
  H        6.91261344     -0.37722120     -4.76287853
  H        8.21019583     -1.56554343     -4.84801489
  H        8.20424216     -0.36584641     -3.55626958
  C        1.52076044      2.96821189     -0.98983912
  H        1.29513040      2.79907237     -2.04739254
  H        0.82895488      3.73495234     -0.63162113
  H        2.52899848      3.38613657     -0.91434508
  O        4.99419589      1.96466739      1.85052338
  O        5.17149589      1.91969134      3.29859213
  H        6.03301057      1.47431124      3.35292221
  O       -2.11563869      2.65759149      2.29201673
  H       -2.18442451      3.54152453      1.90456417
  C        5.80341252     -2.80858298     -4.22685595
  H        5.04932651     -2.12305186     -4.63414340
  H        6.39210255     -3.14492155     -5.09263324
  C        5.08795331     -4.03951667     -3.63760092
  H        4.44402111     -3.74348890     -2.79944582
  H        4.41111600     -4.42433817     -4.41043265
  C        6.02758345     -5.16448406     -3.17673801
  H        6.69999718     -4.77887339     -2.39920220
  H        6.67464566     -5.46439566     -4.01583475
  C        5.32358524     -6.41940406     -2.61865161
  H        4.63522047     -6.08870593     -1.82529362
  C        4.49565243     -7.15776413     -3.68315481
  H        5.13629013     -7.49079567     -4.51017045
  H        4.01571323     -8.04639424     -3.25763352
  H        3.70572362     -6.52842538     -4.10487113
  C        6.34740352     -7.37266027     -1.98163060
  H        7.06637187     -7.73005686     -2.73003099
  H        5.85724786     -8.25140869     -1.54726869
  H        6.91476671     -6.87684344     -1.18563587



