%Mem=256MB 
%NProc=12 

#P HF/6-31G* SCF(Conver=6) NoSymm Test 
   Pop=mk IOp(6/33=2) GFInput GFPrint 

MEP - Input generated by R.E.D.-III.x MOLECULE 

0 1 
  C        1.75843272     -1.24868306     -0.06849769
  H        1.87119173     -1.12865292     -1.15294768
  C        3.15087548     -1.30885232      0.57555050
  H        3.72766393     -2.12864230      0.13579109
  H        3.01322534     -1.55474404      1.64110419
  C        3.91416094     -0.00377427      0.45384616
  C        3.19055850      1.27859230      0.87911978
  C        1.74861650      1.25401049      0.28256228
  H        1.81962665      1.44375056     -0.79749619
  H        1.16681931      2.08005801      0.70449700
  C        0.97861255     -0.05926106      0.48974681
  H        0.78561920     -0.22779597      1.55968190
  H        0.00000000      0.00000000      0.00000000
  C        5.17476659      0.00000000      0.00000000
  H        5.63505260     -0.93672056     -0.31619959
  C        6.05928384      1.20704909     -0.10878010
  H        6.29002886      1.39672027     -1.16975740
  C        5.48264697      2.47848932      0.53234110
  H        5.69308432      2.41319852      1.60540048
  C        3.94585114      2.52877888      0.30641542
  H        3.79882357      2.48577029     -0.78564586
  C        3.35026397      3.87390149      0.78062782
  H        3.36668310      3.92054834      1.87496750
  H        2.29512427      3.93104519      0.49151740
  C        4.07378791      5.11468366      0.22215713
  H        3.93470446      5.15836209     -0.86785174
  H        3.59306327      6.00831727      0.63199897
  C        5.58512535      5.08598358      0.52567723
  C        6.13018384      3.74684082     -0.05135176
  H        5.84943187      3.76089389     -1.11946791
  C        7.65754134      3.91040321      0.00000000
  H        8.17295362      3.25805582     -0.70949914
  H        8.04131068      3.64621026      0.99067737
  C        7.87456768      5.41553941     -0.31126743
  H        8.54859993      5.87200341      0.42364903
  H        8.34757699      5.55277569     -1.28842205
  C        6.47052620      6.10911881     -0.26856627
  H        6.06833504      6.12643553     -1.29432506
  C        5.84237296      5.21904386      2.04446130
  H        5.40875873      4.39363567      2.61459942
  H        6.91088841      5.24277179      2.27710014
  H        5.40336170      6.14464444      2.43110025
  C        6.54927133      7.58492584      0.20281030
  H        7.01270998      7.59302042      1.20123898
  C        5.17320329      8.26552094      0.31217811
  H        4.62934999      8.20445039     -0.63903635
  H        5.27436753      9.32448545      0.56776809
  H        4.54734761      7.81155458      1.08365135
  C        3.11497972      1.30952364      2.42891281
  H        2.48124526      2.12987095      2.77964379
  H        2.69207513      0.38331715      2.82759050
  H        4.10889508      1.42693457      2.87017880
  O        7.39386607      0.89659852      0.36645426
  O        7.34187895      0.63497438      1.80004960
  H        7.38837895     -0.33506301      1.81302148
  O        1.05416635     -2.48494371      0.07493238
  H        0.89111701     -2.64160088      1.01571377
  C        7.47600739      8.39688299     -0.73628509
  H        8.40100480      7.83479544     -0.90712668
  H        6.98986443      8.48750945     -1.71999300
  C        7.86803351      9.79528421     -0.23184962
  H        6.97977092     10.43292445     -0.13447969
  H        8.29174809      9.69972129      0.77685598
  C        8.87368298     10.49437011     -1.15941038
  H        8.46078281     10.50192098     -2.17849112
  H        9.79777453      9.89836850     -1.21144715
  C        9.23751818     11.94219946     -0.77200512
  H        8.29798494     12.51114431     -0.69388572
  C        9.95383348     12.02714367      0.58559917
  H       10.88727033     11.44941111      0.56869761
  H       10.21084019     13.06457367      0.82835533
  H        9.33679248     11.64094751      1.40299625
  C       10.08991196     12.59640538     -1.87099697
  H       11.04255940     12.06535955     -1.99439111
  H       10.32128637     13.63968172     -1.62754857
  H        9.57431994     12.58348990     -2.83814389



