%Mem=256MB 
%NProc=12 

#P HF/6-31G* SCF(Conver=6) NoSymm Test 
   Pop=mk IOp(6/33=2) GFInput GFPrint 

MEP - Input generated by R.E.D.-III.x MOLECULE 

0 1 
  C        0.99687730     -0.88535726     -1.69657884
  H        1.14841993      0.08447325     -2.18607986
  C        2.21136118     -1.78203949     -1.97641959
  H        2.35026118     -1.89162401     -3.05660300
  H        1.98044939     -2.78559347     -1.58354786
  C        3.48453239     -1.26868837     -1.33153163
  C        3.42568904     -0.90962504      0.15749834
  C        2.12848980     -0.08104402      0.41556037
  H        2.27452914      0.92572108      0.00000000
  H        1.98720637      0.04652385      1.49377686
  C        0.84584771     -0.67000963     -0.19150206
  H        0.60049345     -1.63094313      0.28477173
  H        0.00000000      0.00000000      0.00000000
  C        4.60684410     -1.15343327     -2.05422694
  H        4.58888017     -1.39580575     -3.11734321
  C        5.94314165     -0.72068327     -1.52689503
  H        6.22841301      0.23603753     -1.99409307
  C        6.01152940     -0.59243234      0.00238550
  H        6.16730741     -1.60300871      0.39468323
  C        4.66584455     -0.02805124      0.54050426
  H        4.51299841      0.93381405      0.02318522
  C        4.74501776      0.29190026      2.05163145
  H        4.78615736     -0.63913718      2.62695305
  H        3.82845805      0.80243729      2.36661034
  C        5.94974219      1.17016985      2.44115410
  H        5.83625012      2.16302846      1.98360236
  H        5.93862959      1.32179111      3.52694248
  C        7.28097572      0.55251352      1.97539395
  C        7.16701782      0.32620997      0.43764703
  H        6.92773158      1.31876023      0.01779000
  C        8.60823414     -0.00000000      0.00000000
  H        8.78276499      0.22351197     -1.05554524
  H        8.81624809     -1.06763316      0.12395737
  C        9.48889835      0.86337010      0.94704215
  H       10.25027892      0.24688940      1.43582619
  H       10.03202982      1.64391593      0.40252427
  C        8.52499840      1.50717189      1.99278944
  H        8.15836480      2.43550610      1.53269548
  C        7.54517630     -0.77162902      2.72997280
  H        6.82924677     -1.55042929      2.45546285
  H        8.54254076     -1.17008236      2.52925709
  H        7.45958050     -0.62425947      3.81045982
  C        9.25543512      1.96973781      3.28631809
  H       10.09919411      2.56484726      2.90496348
  C        9.89043319      0.86851280      4.15948431
  H        9.14656270      0.34203697      4.76473479
  H       10.60959235      1.31953468      4.85275199
  H       10.43141375      0.12201319      3.57087624
  C        3.37735990     -2.22560231      0.97883493
  H        3.19192692     -2.02605917      2.03873329
  H        2.57765244     -2.88528297      0.63101955
  H        4.31554749     -2.78089809      0.89027472
  O        6.99358580     -1.56316337     -2.06506082
  O        6.83729924     -2.91519572     -1.54136002
  H        6.44104758     -3.36489965     -2.30557995
  O       -0.19256735     -1.39990023     -2.30105530
  H       -0.40592034     -2.24998787     -1.89113706
  C        8.42626855      2.90906722      4.19656144
  H        7.57067055      2.35250192      4.59985541
  H        9.05101576      3.15846680      5.06661394
  C        7.91789976      4.23077653      3.58801050
  H        7.24364250      4.02421624      2.74917598
  H        7.30334235      4.72642377      4.35027172
  C        9.03670935      5.18492804      3.13778158
  H        9.60939650      4.71757106      2.32570967
  H        9.74336389      5.31418947      3.97090807
  C        8.59061921      6.58701415      2.65853878
  H        9.51202692      7.11172584      2.36547637
  C        7.68993711      6.52796444      1.41348951
  H        6.71916346      6.07134543      1.63861482
  H        7.49519783      7.53410926      1.02493117
  H        8.15632779      5.94486039      0.61061319
  C        7.93615307      7.41850018      3.77440529
  H        6.97273273      6.99697513      4.08340976
  H        7.74925517      8.44416563      3.43625700
  H        8.57837352      7.47136063      4.66141920



