%Mem=256MB 
%NProc=12 

#P HF/6-31G* SCF(Conver=6) NoSymm Test 
   Pop=mk IOp(6/33=2) GFInput GFPrint 

MEP - Input generated by R.E.D.-III.x MOLECULE 

0 1 
  C       -1.01184970      1.98248700      1.68447787
  H       -0.99343861      1.00508343      2.18205348
  C        0.31537095      2.70532105      1.95297623
  H        0.47431577      2.80236997      3.03125657
  H        0.22420268      3.72883755      1.55400962
  C        1.50198553      2.01335799      1.30858653
  C        1.38545608      1.66277832     -0.17808846
  C       -0.01164496      1.01306178     -0.42571001
  H        0.00000000      0.00000000      0.00000000
  H       -0.17503692      0.89550277     -1.50222829
  C       -1.19886320      1.77637990      0.18161116
  H       -1.31395328      2.75741031     -0.30267558
  H       -2.12921681      1.22633130      0.00000000
  C        2.59820584      1.74790707      2.03110678
  H        2.62544161      2.00964831      3.08650246
  C        3.86207620      1.13768227      1.50092106
  H        4.04042391      0.16150982      1.97818352
  C        3.90588158      0.99289200     -0.02914545
  H        4.20844256      1.96848442     -0.43189646
  C        2.49384665      0.62523345     -0.56643824
  H        2.21413069     -0.31041406     -0.05529748
  C        2.53625491      0.31213451     -2.07975987
  H        2.70875675      1.23563377     -2.64294327
  H        1.55826436     -0.06016270     -2.40332986
  C        3.60629880     -0.72092439     -2.48230749
  H        3.35489876     -1.69689367     -2.04242789
  H        3.57169396     -0.85147870     -3.56857555
  C        5.01232170     -0.31018309     -2.00234199
  C        4.91259828     -0.08776744     -0.46528020
  H        4.51602803     -1.03690627     -0.06570111
  C        6.37573824     -0.00000000     -0.00000000
  H        6.49081951     -0.27053528      1.05427117
  H        6.75556674      1.02147324     -0.10189651
  C        7.12510419     -0.98032537     -0.94352853
  H        7.98998120     -0.48735392     -1.40286128
  H        7.51886396     -1.84357389     -0.39778139
  C        6.10906798     -1.43032379     -2.04314115
  H        5.61054562     -2.34587970     -1.69163881
  C        5.49908840      0.95069778     -2.75209572
  H        4.85135498      1.81400648     -2.58027288
  H        6.50971951      1.24246891     -2.45136308
  H        5.51834393      0.77278869     -3.83243641
  C        6.80265295     -1.77064775     -3.38575083
  H        7.31331469     -0.85932830     -3.72971697
  C        5.82827220     -2.19433621     -4.50115447
  H        5.15158211     -2.99214598     -4.17561168
  H        6.38203527     -2.56411374     -5.37223370
  H        5.21007628     -1.35996608     -4.84190674
  C        1.50621539      2.97062809     -1.00530021
  H        1.27533129      2.79818138     -2.06117807
  H        0.81418093      3.73640711     -0.64543487
  H        2.51374795      3.39144762     -0.93621595
  O        4.99186415      1.98556209      1.82870176
  O        5.17350192      1.94652203      3.27633955
  H        6.03460649      1.50026304      3.33019807
  O       -2.11868353      2.65991480      2.28611789
  H       -2.19142371      3.54189707      1.89496508
  C        7.92384766     -2.83208121     -3.21332152
  H        8.41686575     -2.95159133     -4.18912465
  H        8.69143323     -2.43491208     -2.53968206
  C        7.48031624     -4.22066670     -2.72196998
  H        7.08363837     -4.15087031     -1.70144576
  H        6.64866214     -4.57836328     -3.34178442
  C        8.59076363     -5.28754680     -2.77498051
  H        8.93304060     -5.37970751     -3.81595564
  H        8.15396908     -6.26271373     -2.51285743
  C        9.82448472     -5.05830666     -1.87592853
  H       10.26614031     -4.08571986     -2.13598831
  C        9.46378778     -5.02891692     -0.38217747
  H        9.00095551     -5.97587320     -0.07498335
  H       10.35814912     -4.88167702      0.23391409
  H        8.76303845     -4.22277950     -0.14206039
  C       10.88748162     -6.13408697     -2.15108217
  H       10.50433209     -7.13365083     -1.90822042
  H       11.78755974     -5.96823299     -1.54810859
  H       11.18642153     -6.13991480     -3.20557001



