%Mem=256MB 
%NProc=12 

#P HF/6-31G* SCF(Conver=6) NoSymm Test 
   Pop=mk IOp(6/33=2) GFInput GFPrint 

MEP - Input generated by R.E.D.-III.x MOLECULE 

0 1 
  C        0.99847599     -0.90749524     -1.68443037
  H        1.15707023      0.05729031     -2.18170756
  C        2.20840831     -1.81313683     -1.95253394
  H        2.35202398     -1.93223683     -3.03075691
  H        1.97131378     -2.81291018     -1.55332655
  C        3.48182104     -1.29830012     -1.30802417
  C        3.41639177     -0.93352117      0.17842135
  C        2.12631015     -0.09103988      0.42586831
  H        2.28227302      0.90994965      0.00000000
  H        1.98129839      0.04871008      1.50235243
  C        0.84239541     -0.67711928     -0.18158406
  H        0.58847041     -1.63182799      0.30241697
  H        0.00000000      0.00000000      0.00000000
  C        4.60523854     -1.19411029     -2.03004166
  H        4.59497243     -1.45821582     -3.08515216
  C        5.94367276     -0.77205211     -1.49975621
  H        6.26268404      0.16582216     -1.98045119
  C        6.00664337     -0.62973866      0.02991325
  H        6.16768408     -1.63718244      0.43575435
  C        4.66139001     -0.06444950      0.56596291
  H        4.51766525      0.90131311      0.05455500
  C        4.74964573      0.23943724      2.07889652
  H        4.79231978     -0.69923982      2.64193653
  H        3.83424709      0.74523473      2.40451405
  C        5.95447253      1.11239190      2.47920842
  H        5.84262393      2.11309269      2.03722811
  H        5.93758187      1.24912218      3.56480987
  C        7.28964772      0.50809774      1.99976734
  C        7.15684783      0.29822751      0.46324177
  H        6.90042699      1.29317953      0.06030084
  C        8.59124585      0.00000000     -0.00000000
  H        8.74120237      0.22874407     -1.05968121
  H        8.82691554     -1.06156389      0.12528449
  C        9.46787560      0.89038124      0.92119484
  H       10.28392763      0.30699827      1.36418099
  H        9.93961470      1.69923479      0.35516084
  C        8.53451348      1.46245809      2.04162050
  H        8.17194865      2.44884610      1.71056272
  C        7.59640779     -0.80947769      2.74831160
  H        6.83707363     -1.57544434      2.57179641
  H        8.55851562     -1.23590570      2.44929247
  H        7.63736368     -0.63951256      3.82903466
  C        9.28134403      1.68975254      3.38190655
  H        9.70877466      0.72476467      3.69446921
  C        8.36285706      2.19337264      4.50994187
  H        7.81724312      3.09225119      4.19676549
  H        8.93782466      2.45161717      5.40425157
  H        7.62691307      1.44465234      4.81165622
  C        3.34953991     -2.24464487      1.00647061
  H        3.14651827     -2.04023260      2.06237271
  H        2.55482406     -2.90378102      0.64759035
  H        4.28644836     -2.80528710      0.93700283
  O        6.93853709     -1.77661793     -1.82249659
  O        7.12488787     -1.77053772     -3.27011544
  H        8.04289345     -1.45780076     -3.32449780
  O       -0.19379861     -1.41909584     -2.28668751
  H       -0.39239203     -2.28164678     -1.89585111
  C       10.46527878      2.67097010      3.18134737
  H       10.98337937      2.42647108      2.24919178
  H       10.06156122      3.68676028      3.04724266
  C       11.49805443      2.68052530      4.32044806
  H       10.99907909      2.88050313      5.27628204
  H       11.93423872      1.67693228      4.41682293
  C       12.61661653      3.72663385      4.15565707
  H       13.24203785      3.71521348      5.06068948
  H       12.15655732      4.72480666      4.11942177
  C       13.54416125      3.57377120      2.93110666
  H       12.92589788      3.60661024      2.02261056
  C       14.52576762      4.75462134      2.86054924
  H       15.17865335      4.77373966      3.74272499
  H       15.16720879      4.68707563      1.97443002
  H       13.99556841      5.71304495      2.81868068
  C       14.30630467      2.23915420      2.93532918
  H       14.92441762      2.14681821      3.83792910
  H       14.97265494      2.16620309      2.06828770
  H       13.63147960      1.37756644      2.90483048



