%Mem=256MB 
%NProc=12 

#P HF/6-31G* SCF(Conver=6) NoSymm Test 
   Pop=mk IOp(6/33=2) GFInput GFPrint 

MEP - Input generated by R.E.D.-III.x MOLECULE 

0 1 
  C       -1.00417322      1.98204247      1.68859227
  H       -0.98816697      1.00317892      2.18327593
  C        0.32491377      2.70126346      1.95965856
  H        0.48154540      2.79662958      3.03877453
  H        0.23546428      3.72495408      1.56108002
  C        1.51137407      2.01079389      1.31459880
  C        1.39740361      1.65413086     -0.17172907
  C       -0.00433682      1.01486625     -0.42143404
  H        0.00000000      0.00000000      0.00000000
  H       -0.16548807      0.90214244     -1.49853278
  C       -1.18932710      1.78185526      0.18525300
  H       -1.29867308      2.76511400     -0.29607103
  H       -2.12167245      1.23645668      0.00000000
  C        2.60918960      1.74410458      2.03487835
  H        2.62935972      1.99331300      3.09637982
  C        3.86963719      1.12471518      1.50704549
  H        4.02080163      0.14196986      1.98274821
  C        3.91299856      0.97359546     -0.02109884
  H        4.21337610      1.94635143     -0.42554181
  C        2.49942520      0.60390083     -0.55145179
  H        2.21321538     -0.32369541     -0.02827017
  C        2.53150609      0.26904105     -2.06034573
  H        2.69733839      1.18424418     -2.63897429
  H        1.55333462     -0.11262300     -2.37280225
  C        3.60373406     -0.76591776     -2.45340176
  H        3.35834000     -1.73623068     -1.99770026
  H        3.56293030     -0.91266759     -3.53746101
  C        5.01044031     -0.34274123     -1.98722037
  C        4.92152969     -0.10621117     -0.45149647
  H        4.53534819     -1.05521605     -0.03920544
  C        6.38811359     -0.00000000      0.00000000
  H        6.51786728     -0.24574917      1.05714356
  H        6.75762788      1.02322285     -0.12196622
  C        7.13511688     -0.98780571     -0.93743588
  H        7.99555042     -0.49734859     -1.40787722
  H        7.53563865     -1.84368376     -0.38448312
  C        6.11477127     -1.45516522     -2.02601025
  H        5.62468202     -2.37087869     -1.66305274
  C        5.48358661      0.91425000     -2.75217234
  H        4.83532803      1.77673813     -2.57831827
  H        6.49617345      1.21153039     -2.46446438
  H        5.49097279      0.72806951     -3.83145879
  C        6.80071668     -1.80279304     -3.37077839
  H        7.29831171     -0.88976098     -3.72904056
  C        5.82239215     -2.25139621     -4.47285666
  H        5.16099530     -3.05546123     -4.13116081
  H        6.37314661     -2.62349161     -5.34498375
  H        5.18906706     -1.42978615     -4.81704692
  C        1.53224007      2.95871336     -1.00147745
  H        1.31438141      2.78148122     -2.05916976
  H        0.83647175      3.72748886     -0.65427940
  H        2.54035593      3.37528421     -0.92079938
  O        5.02962821      1.81769385      2.03372405
  O        5.06190801      3.17271953      1.49584350
  H        4.73140031      3.68101934      2.25459665
  O       -2.10758111      2.66139235      2.29349421
  H       -2.20175806      3.53047255      1.87873164
  C        7.93372112     -2.84971452     -3.19660687
  H        8.42970928     -2.96579809     -4.17103336
  H        8.69873670     -2.44855341     -2.52025820
  C        7.51516468     -4.24209814     -2.69512122
  H        7.04616915     -4.15274682     -1.70762950
  H        6.75330541     -4.66123941     -3.36344544
  C        8.71178383     -5.20408462     -2.61051520
  H        9.47327747     -4.76032031     -1.95279533
  H        9.17618229     -5.27431287     -3.60489929
  C        8.41563023     -6.63755805     -2.11125280
  H        9.38079466     -7.16545131     -2.12179179
  C        7.90213963     -6.66685583     -0.66205099
  H        6.90790972     -6.21341374     -0.57580206
  H        7.82326795     -7.69735520     -0.29714639
  H        8.57656653     -6.12493049      0.01141039
  C        7.47015145     -7.40813050     -3.04773832
  H        6.46127658     -6.97953357     -3.04588498
  H        7.38048348     -8.45510897     -2.73612989
  H        7.83606453     -7.39751785     -4.08123696



