%Mem=256MB 
%NProc=12 

#P HF/6-31G* SCF(Conver=6) NoSymm Test 
   Pop=mk IOp(6/33=2) GFInput GFPrint 

MEP - Input generated by R.E.D.-III.x MOLECULE 

0 1 
  C        1.75853110     -1.24854185     -0.06869476
  H        1.87143556     -1.12845234     -1.15312218
  C        3.15085417     -1.30874403      0.57557973
  H        3.72767287     -2.12863131      0.13604297
  H        3.01299202     -1.55442238      1.64115100
  C        3.91416193     -0.00370709      0.45374457
  C        3.19057430      1.27882422      0.87866776
  C        1.74856558      1.25417144      0.28220354
  H        1.81946755      1.44389611     -0.79786485
  H        1.16675712      2.08018082      0.70419347
  C        0.97870567     -0.05915108      0.48957117
  H        0.78595044     -0.22770174      1.55956925
  H        0.00000000      0.00000000      0.00000000
  C        5.17480602     -0.00000000     -0.00000000
  H        5.63511292     -0.93677302     -0.31602486
  C        6.05924902      1.20707396     -0.10918762
  H        6.28981510      1.39644294     -1.17025646
  C        5.48256878      2.47869772      0.53155854
  H        5.69291700      2.41380837      1.60464621
  C        3.94582087      2.52884459      0.30555566
  H        3.79877481      2.48538797     -0.78648388
  C        3.35012587      3.87400214      0.77928648
  H        3.36752510      3.92150423      1.87354466
  H        2.29475551      3.93070655      0.49097114
  C        4.07308376      5.11434252      0.21935063
  H        3.93388656      5.15665902     -0.87070742
  H        3.59225720      6.00832776      0.62822202
  C        5.58446595      5.08635834      0.52293319
  C        6.13024609      3.74687400     -0.05258239
  H        5.85043161      3.76004336     -1.12096116
  C        7.65747840      3.91111201      0.00000000
  H        8.17386879      3.25800390     -0.70807457
  H        8.04033582      3.64846528      0.99145338
  C        7.87405127      5.41597015     -0.31322803
  H        8.54755290      5.87396840      0.42125167
  H        8.34734786      5.55167415     -1.29043957
  C        6.46958792      6.10893435     -0.27224267
  H        6.06785116      6.12440705     -1.29820351
  C        5.84156717      5.22104982      2.04166936
  H        5.40919383      4.39550057      2.61261844
  H        6.91004687      5.24645363      2.27429789
  H        5.40133184      6.14635349      2.42762549
  C        6.54662879      7.58556383      0.19693525
  H        7.01177727      7.59597637      1.19453560
  C        5.16898580      8.26302526      0.30734399
  H        4.62125027      8.19310201     -0.64095789
  H        5.26776423      9.32426010      0.55433462
  H        4.54788615      7.81315013      1.08505664
  C        3.11498272      1.31018624      2.42844778
  H        2.48165034      2.13095697      2.77893287
  H        2.69157714      0.38429781      2.82735379
  H        4.10893433      1.42720661      2.86974984
  O        7.39390940      0.89676057      0.36594793
  O        7.34203643      0.63480170      1.79944464
  H        7.38676266     -0.33532905      1.81218598
  O        1.05421667     -2.48479096      0.07455856
  H        0.89091407     -2.64147662      1.01529183
  C        7.46961683      8.39838867     -0.74548008
  H        8.38757880      7.83057724     -0.93382740
  H        6.97164231      8.50279013     -1.72191980
  C        7.87798026      9.78890349     -0.23247342
  H        6.98992783     10.41312365     -0.08446897
  H        8.34904739      9.68209000      0.75622154
  C        8.85464420     10.50318788     -1.17907952
  H        8.37262751     10.64722131     -2.15839225
  H        9.71399895      9.84152383     -1.35929432
  C        9.38503968     11.86365234     -0.68228817
  H        9.82580518     11.70425858      0.31408647
  C       10.49808568     12.37858809     -1.60881620
  H       10.11328422     12.55304753     -2.62189151
  H       10.91340467     13.32520364     -1.24457976
  H       11.32050381     11.65808873     -1.68498578
  C        8.27359041     12.91668768     -0.54263808
  H        7.78171346     13.09235015     -1.50836337
  H        8.68266090     13.87422385     -0.20054540
  H        7.50402255     12.61310822      0.17404170



