%Mem=256MB 
%NProc=12 

#P HF/6-31G* SCF(Conver=6) NoSymm Test 
   Pop=mk IOp(6/33=2) GFInput GFPrint 

MEP - Input generated by R.E.D.-III.x MOLECULE 

0 1 
  C        7.51148303      2.21729700      0.07088501
  H        7.34516276      2.18838501      1.15473590
  C        6.82077858      1.00749753     -0.57353707
  H        7.20108672      0.08236266     -0.12984655
  H        7.10710553      0.98807065     -1.63787033
  C        5.30913698      1.06230875     -0.45559653
  C        4.61873160      2.35790932     -0.89345474
  C        5.40399031      3.56570066     -0.29343734
  H        5.19878703      3.60753100      0.78536296
  H        5.02050738      4.49919129     -0.71874865
  C        6.92671170      3.51252579     -0.49157663
  H        7.17858954      3.58467972     -1.56000785
  H        7.39786557      4.37128457      0.00000000
  C        4.63224599      0.00000000      0.00000000
  H        5.17227268     -0.89312246      0.30631460
  C        3.13865943     -0.10330782      0.09630116
  H        2.83402440     -0.21351529      1.14868623
  C        2.37617070      1.06222435     -0.55505223
  H        2.31900477      0.84265441     -1.62930452
  C        3.15350221      2.39108035     -0.33881008
  H        3.25391993      2.50461597      0.75294161
  C        2.33564792      3.60289812     -0.84073723
  H        2.29240497      3.59133742     -1.93522961
  H        2.85155873      4.53008677     -0.56887032
  C        0.89879932      3.66717561     -0.28850676
  H        0.93307038      3.83006072      0.79848613
  H        0.40003623      4.54174089     -0.71774500
  C        0.11526457      2.36902593     -0.56790291
  C        0.95680624      1.20236442      0.02615291
  H        1.09819893      1.46418311      1.08895082
  C        0.00000000      0.00000000      0.00000000
  H        0.27755852     -0.76761800      0.72899920
  H        0.01240801     -0.48441866     -0.98152816
  C       -1.38629321      0.62731123      0.30840331
  H       -2.13816214      0.28870516     -0.41413197
  H       -1.74696406      0.31792646      1.29393117
  C       -1.21901904      2.18375255      0.23523428
  H       -1.01527361      2.55235560      1.25340612
  C       -0.13870178      2.19663273     -2.08337915
  H        0.78957790      2.11627003     -2.65455800
  H       -0.72819254      1.30103270     -2.30084162
  H       -0.68940079      3.05418378     -2.48305064
  C       -2.50993028      2.89253008     -0.24867980
  H       -2.75636201      2.47877786     -1.23762461
  C       -2.35340624      4.41703736     -0.40157201
  H       -1.97943165      4.86526674      0.52734535
  H       -3.31734571      4.88473458     -0.62448282
  H       -1.66530924      4.69073164     -1.20545203
  C        4.64934404      2.43460885     -2.44344668
  H        4.30646306      3.41025373     -2.80189485
  H        5.66070757      2.28670022     -2.83090816
  H        4.01849029      1.66086103     -2.89097685
  O        2.68204025     -1.28703999     -0.60607790
  O        3.15504438     -2.45385031      0.13229264
  H        2.30802338     -2.82435019      0.43026992
  O        8.93390328      2.15395236     -0.06601131
  H        9.15508255      2.16862286     -1.00784456
  C       -3.70678241      2.57693173      0.70139350
  H       -3.43199836      1.77738765      1.39715301
  H       -3.90606164      3.45672449      1.32961674
  C       -5.01442354      2.15041907      0.00572281
  H       -4.81925592      1.24896857     -0.59401150
  H       -5.72694682      1.84886508      0.78374977
  C       -5.66168269      3.21460261     -0.89305156
  H       -4.94470264      3.51755431     -1.66729374
  H       -5.86978544      4.11747199     -0.29804565
  C       -6.96272628      2.77249572     -1.59589888
  H       -6.74679828      1.83727667     -2.13557983
  C       -8.10590301      2.49263199     -0.60664314
  H       -8.34388535      3.39251214     -0.02445046
  H       -9.01631829      2.19119705     -1.13707359
  H       -7.85771572      1.69390035      0.09922593
  C       -7.39733465      3.82074806     -2.63274997
  H       -7.62136585      4.77984767     -2.14821236
  H       -8.29895727      3.50168976     -3.16794221
  H       -6.61132554      3.99885923     -3.37559711



