%Mem=256MB 
%NProc=12 

#P HF/6-31G* SCF(Conver=6) NoSymm Test 
   Pop=mk IOp(6/33=2) GFInput GFPrint 

MEP - Input generated by R.E.D.-III.x MOLECULE 

0 1 
  C        0.99847388     -0.89614067     -1.68993661
  H        1.15485229      0.07081708     -2.18357582
  C        2.21023544     -1.79862953     -1.96239181
  H        2.35124699     -1.91433506     -3.04167226
  H        1.97463878     -2.79929998     -1.56491391
  C        3.48392915     -1.28692668     -1.31706069
  C        3.42292996     -0.91762651      0.16928034
  C        2.12735466     -0.08451489      0.42040023
  H        2.27676632      0.91974500      0.00000000
  H        1.98452998      0.04896066      1.49768599
  C        0.84451336     -0.67315619     -0.18630354
  H        0.59554584     -1.63110838      0.29412035
  H        0.00000000      0.00000000      0.00000000
  C        4.60917829     -1.18243187     -2.03685739
  H        4.59344978     -1.43225906     -3.09828908
  C        5.94622040     -0.75305915     -1.50851945
  H        6.24076719      0.19498411     -1.98740707
  C        6.00976902     -0.60461347      0.01922619
  H        6.16739193     -1.60908901      0.42679859
  C        4.66376785     -0.03546350      0.54778030
  H        4.51329226      0.92294702      0.02346706
  C        4.74458656      0.29301142      2.05589345
  H        4.78170072     -0.63585669      2.63536279
  H        3.83039067      0.80873643      2.36962575
  C        5.95216599      1.16753913      2.44551289
  H        5.84665884      2.16070841      1.98524067
  H        5.93114979      1.32382374      3.52845136
  C        7.28575520      0.54817763      1.98194871
  C        7.16287123      0.32058771      0.44700473
  H        6.91926163      1.31370396      0.02949964
  C        8.59795591      0.00000000      0.00000000
  H        8.76076483      0.19891944     -1.06231116
  H        8.82096109     -1.06143844      0.14872425
  C        9.47377081      0.89892225      0.91350204
  H       10.28579061      0.31903395      1.36855547
  H        9.95158395      1.69756423      0.33790520
  C        8.53830069      1.49221605      2.02157506
  H        8.18663888      2.47831651      1.67773958
  C        7.57718720     -0.76291458      2.74799025
  H        6.81653303     -1.52731559      2.57043941
  H        8.54007282     -1.19683402      2.46347963
  H        7.60709531     -0.58142083      3.82733797
  C        9.27825836      1.72770812      3.36431381
  H        9.69766788      0.76304788      3.68846245
  C        8.35732847      2.24806340      4.48283346
  H        7.81924803      3.14757734      4.15842296
  H        8.92937417      2.51110281      5.37778152
  H        7.61494337      1.50691805      4.78766828
  C        3.37099597     -2.22811316      0.99912098
  H        3.18322128     -2.02134439      2.05724781
  H        2.57125579     -2.88906466      0.65374727
  H        4.30874170     -2.78508888      0.91637304
  O        6.99252917     -1.61105779     -2.03073605
  O        6.82409998     -2.95426062     -1.48870561
  H        6.42297800     -3.41075104     -2.24635766
  O       -0.19128635     -1.40912264     -2.29509552
  H       -0.40929922     -2.25614182     -1.88130165
  C       10.46938868      2.69966601      3.16128991
  H       10.98692886      2.44729033      2.23100679
  H       10.07274396      3.71757616      3.02192026
  C       11.49992736      2.70731488      4.30241490
  H       10.99923787      2.90771501      5.25734644
  H       11.93426045      1.70296572      4.39933440
  C       12.62059138      3.75157485      4.14049923
  H       13.24447127      3.73859883      5.04665475
  H       12.16222634      4.75053399      4.10394258
  C       13.54984486      3.59785967      2.91738467
  H       12.93281559      3.63008179      2.00809951
  C       14.53180479      4.77846220      2.84746270
  H       15.18337803      4.79808284      3.73064259
  H       15.17457339      4.71011845      1.96235448
  H       14.00184588      5.73697892      2.80408919
  C       14.31183837      2.26320875      2.92357814
  H       14.92881609      2.17167011      3.82707901
  H       14.97918387      2.18953093      2.05736420
  H       13.63706775      1.40163915      2.89263097



