%Mem=26GB
%NProc=12
%RWF=/home/michal/Cholesterol_grant/peroxy_params,20GB
#P MP2/cc-pVQZ SP Nosymm

PEscan

0 1
C              -0.59787            -1.11532            -3.29364
C              -0.03942            -0.04756            -2.36533
O               0.63725            -0.51825            -1.18381
O               0.23864            -1.88799            -0.89444
H               1.09013            -2.32150            -1.06764
H              -1.39065            -1.69641            -2.80475
H               0.71507             0.57068            -2.88278
H              -0.86542             0.61828            -2.04865
H              -1.01907            -0.61337            -4.18074
H               0.18649            -1.81068            -3.63264

