%Mem=26GB
%NProc=12
%RWF=/home/michal/Cholesterol_grant/peroxy_params,20GB
#P MP2/cc-pVQZ SP Nosymm

PEscan

0 1
C              -0.79808            -1.05773            -3.38470
C              -0.09784            -0.22192            -2.32440
O              -0.02095            -0.88004            -1.06436
O               0.93006            -1.97384            -1.24461
H               1.62414            -1.65435            -0.64379
H              -1.80885            -1.33300            -3.04443
H               0.91447             0.08041            -2.65216
H              -0.67651             0.68906            -2.09040
H              -0.88202            -0.49093            -4.32707
H              -0.22928            -1.97978            -3.57850

