%Mem=26GB
%NProc=12
%RWF=/home/michal/Cholesterol_grant/peroxy_params,20GB
#P MP2/cc-pVQZ SP Nosymm

PEscan

0 1
C              -0.64752            -1.10547            -3.29671
C              -0.06432            -0.06867            -2.34912
O               0.37408            -0.55214            -1.06242
O               0.37031            -2.00551            -1.04276
H               1.32976            -2.15777            -1.00889
H              -1.50714            -1.62373            -2.84656
H               0.80008             0.42408            -2.83691
H              -0.81349             0.70951            -2.12186
H              -0.98557            -0.58304            -4.20730
H               0.09897            -1.85938            -3.58189

