%Mem=26GB
%NProc=12
%RWF=/home/michal/Cholesterol_grant/peroxy_params,20GB
#P CCSD(T)/cc-pVDZ SP Nosymm

PEscan

0 1
C              -0.53975            -1.10943            -3.39034
C               0.00929            -0.10157            -2.39091
O               0.95014            -0.66440            -1.48301
O               0.17648            -1.54271            -0.60822
H               0.60558            -2.38596            -0.83074
H              -1.11446            -1.89062            -2.87005
H               0.59873             0.68263            -2.89655
H              -0.80600             0.38499            -1.82520
H              -1.20872            -0.61062            -4.11104
H               0.28388            -1.58441            -3.94835

