%Mem=26GB
%NProc=12
%RWF=/home/michal/Cholesterol_grant/peroxy_params,20GB
#P MP2/cc-pVQZ SP Nosymm

PEscan

0 1
C              -0.55091            -1.08157            -3.50456
C               0.00968            -0.19414            -2.40202
O               0.99811            -0.87860            -1.62764
O               0.32848            -1.32334            -0.40843
H               0.48196            -2.27927            -0.49532
H              -1.07636            -1.94918            -3.07209
H               0.54027             0.67102            -2.83835
H              -0.77370             0.18524            -1.72770
H              -1.26600            -0.52165            -4.13066
H               0.26361            -1.45063            -4.14764

