%Mem=26GB
%NProc=12
%RWF=/home/michal/Cholesterol_grant/peroxy_params,20GB
#P CCSD(T)/cc-pVDZ SP Nosymm

PEscan

0 1
C              -0.55979            -1.06244            -3.57028
C              -0.00085            -0.26007            -2.40390
O               0.97030            -1.04481            -1.69742
O               0.49926            -1.19024            -0.32418
H               0.43158            -2.15935            -0.29874
H              -1.09532            -1.95375            -3.20497
H               0.50632             0.65450            -2.76209
H              -0.79005             0.03691            -1.69707
H              -1.26035            -0.44854            -4.16120
H               0.25405            -1.39433            -4.23457

