%Mem=26GB
%NProc=12
%RWF=/home/michal/Cholesterol_grant/peroxy_params,20GB
#P MP2/cc-pVQZ SP Nosymm

PEscan

0 1
C              -0.85467            -1.03173            -3.43221
C              -0.08845            -0.30147            -2.33970
O              -0.05533            -1.04826            -1.12252
O               1.13782            -1.88690            -1.18414
H               1.62708            -1.48445            -0.44719
H              -1.87477            -1.26233            -3.08761
H               0.94144            -0.05280            -2.64520
H              -0.60810             0.63495            -2.06604
H              -0.91984            -0.41170            -4.34236
H              -0.35002            -1.97742            -3.68743

