%Mem=26GB
%NProc=12
%RWF=/home/michal/Cholesterol_grant/peroxy_params,20GB
#P MP2/cc-pVQZ SP Nosymm

PEscan

0 1
C              -0.54589            -1.09045            -3.46811
C               0.01226            -0.16128            -2.39956
O               0.99271            -0.80409            -1.58665
O               0.25394            -1.39712            -0.47370
H               0.52053            -2.32390            -0.59613
H              -1.07384            -1.93805            -3.00105
H               0.56141             0.67641            -2.86480
H              -0.77667             0.25767            -1.75391
H              -1.25982            -0.55601            -4.11713
H               0.27051            -1.48531            -4.09338

