%Mem=26GB
%NProc=12
%RWF=/home/michal/Cholesterol_grant/peroxy_params,20GB
#P MP2/cc-pVQZ SP Nosymm

PEscan

0 1
C              -0.56313            -1.00830            -3.69787
C              -0.13597            -0.47342            -2.34036
O               0.62531            -1.51127            -1.73691
O               1.03468            -0.99753            -0.43490
H               0.54091            -1.61858             0.12675
H              -1.17454            -1.91685            -3.58141
H               0.48045             0.43857            -2.44035
H              -1.01304            -0.23021            -1.71068
H              -1.15833            -0.24892            -4.22964
H               0.31882            -1.25561            -4.30904

