%Mem=26GB
%NProc=12
%RWF=/home/michal/Cholesterol_grant/peroxy_params,20GB
#P CCSD(T)/cc-pVDZ SP Nosymm

PEscan

0 1
C              -0.55543            -1.07251            -3.53843
C               0.00575            -0.22702            -2.40370
O               0.99193            -0.95867            -1.66463
O               0.41399            -1.25340            -0.35748
H               0.44719            -2.22395            -0.39808
H              -1.08332            -1.95459            -3.13987
H               0.52081             0.66488            -2.80412
H              -0.77767             0.10991            -1.70827
H              -1.26606            -0.48616            -4.14521
H               0.25796            -1.42060            -4.19464

