%Mem=26GB
%NProc=12
%RWF=/home/michal/Cholesterol_grant/peroxy_params,20GB
#P MP2/cc-pVQZ SP Nosymm

PEscan

0 1
C              -0.90285            -1.00691            -3.46794
C              -0.07127            -0.37669            -2.36122
O              -0.04339            -1.23214            -1.20960
O               1.30522            -1.77072            -1.09391
H               1.56568            -1.33083            -0.26729
H              -1.91939            -1.22495            -3.10415
H               0.96373            -0.18548            -2.68336
H              -0.51873             0.58057            -2.03362
H              -0.98007            -0.32408            -4.33108
H              -0.44377            -1.95089            -3.80226

