%Mem=26GB
%NProc=12
%RWF=/home/michal/Cholesterol_grant/peroxy_params,20GB
#P MP2/cc-pVQZ SP Nosymm

PEscan

0 1
C              -0.76980            -1.06970            -3.36357
C              -0.09684            -0.18647            -2.32409
O               0.01885            -0.80134            -1.04502
O               0.81986            -2.00564            -1.24255
H               1.59870            -1.74320            -0.72336
H              -1.76314            -1.38837            -3.00897
H               0.90133             0.14023            -2.67712
H              -0.69986             0.71156            -2.10487
H              -0.89203            -0.51403            -4.30822
H              -0.16191            -1.96514            -3.55664

