%Mem=26GB
%NProc=12
%RWF=/home/michal/Cholesterol_grant/peroxy_params,20GB
#P CCSD(T)/cc-pVDZ SP Nosymm

PEscan

0 1
C              -0.54315            -1.11701            -3.35523
C               0.00168            -0.07912            -2.38453
O               0.90947            -0.60578            -1.42108
O               0.17203            -1.61489            -0.66672
H               0.67328            -2.39953            -0.94510
H              -1.16672            -1.85170            -2.82608
H               0.61645             0.67725            -2.90153
H              -0.82887             0.44000            -1.86943
H              -1.16143            -0.62525            -4.12429
H               0.28241            -1.64608            -3.86043

