%Mem=26GB
%NProc=12
%RWF=/home/michal/Cholesterol_grant/peroxy_params,20GB
#P CCSD(T)/cc-pVDZ SP Nosymm

PEscan

0 1
C              -0.56605            -1.01658            -3.68326
C              -0.09947            -0.44049            -2.35571
O               0.70757            -1.44693            -1.75601
O               0.95689            -1.00265            -0.38916
H               0.48506            -1.71263             0.07770
H              -1.16540            -1.92553            -3.51913
H               0.48327             0.48934            -2.49314
H              -0.96036            -0.21453            -1.69988
H              -1.18246            -0.27630            -4.21797
H               0.29611            -1.27582            -4.31788

