%Mem=26GB
%NProc=12
%RWF=/home/michal/Cholesterol_grant/peroxy_params,20GB
#P CCSD(T)/cc-pVDZ SP Nosymm

PEscan

0 1
C              -0.95355            -0.98079            -3.48525
C              -0.01061            -0.47000            -2.40753
O               0.06219            -1.47591            -1.39190
O               1.44740            -1.55100            -0.95312
H               1.34617            -1.18823            -0.05667
H              -1.94532            -1.20784            -3.06186
H               1.00014            -0.31657            -2.81746
H              -0.36085             0.48721            -1.97303
H              -1.08145            -0.21898            -4.27199
H              -0.54897            -1.89999            -3.93560

