%Mem=26GB
%NProc=12
%RWF=/home/michal/Cholesterol_grant/peroxy_params,20GB
#P MP2/cc-pVQZ SP Nosymm

PEscan

0 1
C              -0.93919            -0.98733            -3.48396
C              -0.03690            -0.44187            -2.38835
O               0.01435            -1.40536            -1.32702
O               1.41383            -1.63146            -1.00033
H               1.43565            -1.21579            -0.12167
H              -1.94247            -1.20998            -3.08640
H               0.98638            -0.28629            -2.76311
H              -0.41509             0.52050            -1.99159
H              -1.04622            -0.24859            -4.29587
H              -0.51519            -1.91596            -3.89613

