%Mem=26GB
%NProc=12
%RWF=/home/michal/Cholesterol_grant/peroxy_params,20GB
#P MP2/cc-pVQZ SP Nosymm

PEscan

0 1
C              -0.88031            -1.01899            -3.45247
C              -0.08103            -0.34030            -2.35039
O              -0.05433            -1.13878            -1.16194
O               1.22871            -1.83170            -1.14007
H               1.60431            -1.40550            -0.35159
H              -1.89954            -1.24058            -3.09915
H               0.95314            -0.12095            -2.65943
H              -0.56560             0.60776            -2.05181
H              -0.94955            -0.36702            -4.33983
H              -0.40065            -1.96605            -3.74773

