%Mem=26GB
%NProc=12
%RWF=/home/michal/Cholesterol_grant/peroxy_params,20GB
#P CCSD(T)/cc-pVDZ SP Nosymm

PEscan

0 1
C              -0.82672            -1.04478            -3.40861
C              -0.09443            -0.26118            -2.33013
O              -0.04545            -0.96241            -1.09024
O               1.03654            -1.93454            -1.22191
H               1.63404            -1.56717            -0.54914
H              -1.84505            -1.29182            -3.07006
H               0.92829             0.01535            -2.64159
H              -0.64556             0.66263            -2.07791
H              -0.89412            -0.45516            -4.33840
H              -0.29239            -1.98303            -3.62643

