%Mem=26GB
%NProc=12
%RWF=/home/michal/Cholesterol_grant/peroxy_params,20GB
#P CCSD(T)/cc-pVDZ SP Nosymm

PEscan

0 1
C              -0.58033            -1.11938            -3.29812
C              -0.02911            -0.04788            -2.36930
O               0.71608            -0.52041            -1.23563
O               0.21009            -1.82557            -0.83437
H               0.98134            -2.35917            -1.08613
H              -1.33997            -1.73022            -2.79377
H               0.68898             0.60852            -2.88998
H              -0.86860             0.58029            -2.01127
H              -1.04177            -0.62430            -4.16876
H               0.21843            -1.78399            -3.66709

