%Mem=26GB
%NProc=12
%RWF=/home/michal/Cholesterol_grant/peroxy_params,20GB
#P MP2/cc-pVQZ SP Nosymm

PEscan

0 1
C              -0.63044            -1.10865            -3.29275
C              -0.05689            -0.05765            -2.35503
O               0.46468            -0.53357            -1.09519
O               0.31936            -1.97707            -0.99804
H               1.25929            -2.22118            -1.03074
H              -1.47042            -1.64641            -2.83061
H               0.77080             0.47778            -2.85798
H              -0.83676             0.68372            -2.10411
H              -0.99319            -0.59349            -4.19797
H               0.12874            -1.84557            -3.59200

