%Mem=26GB
%NProc=12
%RWF=/home/michal/Cholesterol_grant/peroxy_params,20GB
#P MP2/cc-pVQZ SP Nosymm

PEscan

0 1
C              -0.56359            -1.05204            -3.59936
C              -0.01157            -0.29358            -2.40120
O               0.93378            -1.13249            -1.72425
O               0.58376            -1.13377            -0.30735
H               0.43457            -2.08822            -0.20342
H              -1.11192            -1.94824            -3.26804
H               0.49695             0.63727            -2.71393
H              -0.81170            -0.02942            -1.69298
H              -1.24865            -0.40992            -4.17798
H               0.25352            -1.37171            -4.26592

