%Mem=26GB
%NProc=12
%RWF=/home/michal/Cholesterol_grant/peroxy_params,20GB
#P MP2/cc-pVQZ SP Nosymm

PEscan

0 1
C              -0.55135            -1.12139            -3.32721
C              -0.00799            -0.06277            -2.37836
O               0.85545            -0.56159            -1.35662
O               0.17871            -1.68646            -0.72151
H               0.76080            -2.39927            -1.03300
H              -1.22585            -1.80938            -2.79986
H               0.63772             0.66320            -2.90072
H              -0.84950             0.49087            -1.91768
H              -1.11323            -0.63263            -4.14020
H               0.27039            -1.70269            -3.77927

