%Mem=26GB
%NProc=12
%RWF=/home/michal/Cholesterol_grant/peroxy_params,20GB
#P MP2/cc-pVQZ SP Nosymm

PEscan

0 1
C              -0.92236            -0.99614            -3.47833
C              -0.05708            -0.41058            -2.37329
O              -0.02092            -1.32290            -1.26529
O               1.36661            -1.70431            -1.04717
H               1.50961            -1.26527            -0.19172
H              -1.93382            -1.21509            -3.10045
H               0.97439            -0.24191            -2.71791
H              -0.46817             0.55179            -2.01264
H              -1.01212            -0.28414            -4.31616
H              -0.48098            -1.93357            -3.85146

