%Mem=26GB
%NProc=12
%RWF=/home/michal/Cholesterol_grant/peroxy_params,20GB
#P CCSD(T)/cc-pVDZ SP Nosymm

PEscan

0 1
C              -0.71334            -1.08915            -3.32942
C              -0.08414            -0.12807            -2.33215
O               0.12906            -0.66749            -1.02506
O               0.59593            -2.03877            -1.17179
H               1.51273            -1.91743            -0.87108
H              -1.64608            -1.51446            -2.92509
H               0.87530             0.25060            -2.74295
H              -0.73631             0.73848            -2.13214
H              -0.94860            -0.54184            -4.25741
H              -0.02940            -1.91399            -3.56736

