%Mem=26GB
%NProc=12
%RWF=/home/michal/Cholesterol_grant/peroxy_params,20GB
#P MP2/cc-pVQZ SP Nosymm

PEscan

0 1
C              -0.98128            -0.97203            -3.46699
C               0.09363            -0.53302            -2.48570
O               0.26642            -1.61973            -1.58479
O               1.45368            -1.30170            -0.80082
H               1.03368            -1.20674             0.07081
H              -1.92025            -1.20293            -2.93926
H               1.04651            -0.32929            -3.00567
H              -0.20340             0.38173            -1.93638
H              -1.17780            -0.16716            -4.19321
H              -0.65603            -1.87125            -4.01241

