%Mem=26GB
%NProc=12
%RWF=/home/michal/Cholesterol_grant/peroxy_params,20GB
#P MP2/cc-pVQZ SP Nosymm

PEscan

0 1
C              -0.56722            -1.03380            -3.64636
C              -0.04558            -0.36476            -2.38385
O               0.83700            -1.29693            -1.75805
O               0.77244            -1.04594            -0.32162
H               0.44202            -1.91745            -0.04735
H              -1.14286            -1.93692            -3.39099
H               0.48629             0.57959            -2.60605
H              -0.87466            -0.14018            -1.69231
H              -1.21811            -0.33922            -4.20221
H               0.26581            -1.32651            -4.30563

