%Mem=26GB
%NProc=12
%RWF=/home/michal/Cholesterol_grant/peroxy_params,20GB
#P MP2/cc-pVQZ SP Nosymm

PEscan

0 1
C              -0.56612            -1.04245            -3.62468
C              -0.02663            -0.32816            -2.39450
O               0.88784            -1.21686            -1.74444
O               0.67401            -1.08468            -0.30641
H               0.44106            -2.00916            -0.11953
H              -1.12899            -1.94180            -3.32956
H               0.49070             0.61243            -2.66157
H              -0.84069            -0.08807            -1.69232
H              -1.23351            -0.37310            -4.19245
H               0.25747            -1.35027            -4.28897

