%Mem=26GB
%NProc=12
%RWF=/home/michal/Cholesterol_grant/peroxy_params,20GB
#P CCSD(T)/cc-pVDZ SP Nosymm

PEscan

0 1
C              -0.74139            -1.08017            -3.34559
C              -0.09144            -0.15556            -2.32747
O               0.06922            -0.72946            -1.03182
O               0.70550            -2.02862            -1.21444
H               1.56112            -1.83035            -0.79741
H              -1.70681            -1.45287            -2.96665
H               0.88933             0.19549            -2.70935
H              -0.71774             0.72858            -2.12006
H              -0.91946            -0.52826            -4.28351
H              -0.09316            -1.94087            -3.55812

