%Mem=26GB
%NProc=12
%RWF=/home/michal/Cholesterol_grant/peroxy_params,20GB
#P MP2/cc-pVQZ SP Nosymm

PEscan

0 1
C              -0.56725            -1.02525            -3.66579
C              -0.06938            -0.40311            -2.37047
O               0.77826            -1.37418            -1.76289
O               0.86946            -1.01890            -0.35059
H               0.45206            -1.81510             0.01836
H              -1.15459            -1.93215            -3.45445
H               0.48418             0.53794            -2.54897
H              -0.91414            -0.18385            -1.69410
H              -1.20192            -0.30694            -4.20948
H               0.27846            -1.30059            -4.31604

