%Mem=26GB
%NProc=12
%RWF=/home/michal/Cholesterol_grant/peroxy_params,20GB
#P MP2/cc-pVQZ SP Nosymm

PEscan

0 1
C               0.01746            -0.03707             0.04242
C               0.11019             0.22246             1.53747
O               1.46940            -0.00735             1.88810
O               1.58722             0.31184             3.30205
H               1.55382            -0.58875             3.66865
H               0.31187            -1.07235            -0.19089
H              -0.17185             1.26131             1.78614
H              -0.55265            -0.46064             2.10460
H              -1.01691             0.12060            -0.30245
H               0.68135             0.64810            -0.50716

