%Mem=26GB
%NProc=12
%RWF=/home/michal/Cholesterol_grant/peroxy_params,20GB
#P CCSD(T)/cc-pVDZ SP Nosymm

PEscan

0 1
C               0.02486            -0.02843             0.02552
C               0.03354             0.20415             1.52753
O               1.32900            -0.15987             1.97158
O               1.29518             0.10932             3.41468
H               2.13781            -0.31856             3.63753
H               0.23017            -1.08592            -0.20347
H              -0.16164             1.26499             1.77175
H              -0.72742            -0.41524             2.03789
H              -0.96159             0.23534            -0.38787
H               0.78999             0.59237            -0.46620

