%Mem=26GB
%NProc=12
%RWF=/home/michal/Cholesterol_grant/peroxy_params,20GB
#P MP2/cc-pVQZ SP Nosymm

PEscan

0 1
C               0.02389            -0.03015             0.02652
C               0.03891             0.20902             1.52750
O               1.34333            -0.13325             1.96404
O               1.32702             0.16231             3.40151
H               2.08543            -0.39113             3.64936
H               0.24475            -1.08517            -0.19961
H              -0.16977             1.26824             1.76732
H              -0.70993            -0.41812             2.04631
H              -0.96948             0.21566            -0.38134
H               0.77573             0.60074            -0.47269

