%Mem=26GB
%NProc=12
%RWF=/home/michal/Cholesterol_grant/peroxy_params,20GB
#P MP2/cc-pVQZ SP Nosymm

PEscan

0 1
C               0.02244             0.00704             0.04191
C               0.09228            -0.01365             1.56032
O               1.47086            -0.14537             1.88512
O               1.55097            -0.24516             3.33169
H               1.63669             0.69831             3.55605
H               0.42875            -0.92861            -0.37239
H              -0.31512             0.92352             1.99060
H              -0.47661            -0.86167             1.98184
H              -1.02441             0.11307            -0.28451
H               0.60403             0.85064            -0.36170

