%Mem=26GB
%NProc=12
%RWF=/home/michal/Cholesterol_grant/peroxy_params,20GB
#P CCSD(T)/cc-pVDZ SP Nosymm

PEscan

0 1
C               0.01161            -0.00726             0.05894
C               0.19915             0.06430             1.56545
O               1.58229            -0.12151             1.79938
O               1.83543            -0.05377             3.23815
H               0.98294             0.26382             3.58431
H               0.33840            -0.98830            -0.31805
H              -0.12480             1.05343             1.95409
H              -0.38866            -0.72478             2.07754
H              -1.05069             0.13519            -0.19478
H               0.60424             0.77702            -0.43609

