%Mem=26GB
%NProc=12
%RWF=/home/michal/Cholesterol_grant/peroxy_params,20GB
#P CCSD(T)/cc-pVDZ SP Nosymm

PEscan

0 1
C               0.02285            -0.03189             0.02810
C               0.04648             0.21402             1.52796
O               1.36061            -0.10615             1.95447
O               1.36374             0.20717             3.38694
H               2.01961            -0.45533             3.65916
H               0.25860            -1.08422            -0.19568
H              -0.17625             1.27104             1.76426
H              -0.68882            -0.42149             2.05600
H              -0.97760             0.19637            -0.37265
H               0.76068             0.60862            -0.47963

