%Mem=26GB
%NProc=12
%RWF=/home/michal/Cholesterol_grant/peroxy_params,20GB
#P MP2/cc-pVQZ SP Nosymm

PEscan

0 1
C               0.02102             0.00677             0.04514
C               0.11066            -0.01077             1.56243
O               1.49145            -0.15309             1.87096
O               1.59518            -0.25024             3.31488
H               1.52589             0.69159             3.55418
H               0.41095            -0.93480            -0.37134
H              -0.28277             0.93315             1.99329
H              -0.46132            -0.85106             1.99526
H              -1.02864             0.12427            -0.26799
H               0.60748             0.84232            -0.36788

