%Mem=26GB
%NProc=12
%RWF=/home/michal/Cholesterol_grant/peroxy_params,20GB
#P CCSD(T)/cc-pVDZ SP Nosymm

PEscan

0 1
C               0.01375            -0.03357             0.05180
C               0.15996             0.20023             1.54649
O               1.53367            -0.00879             1.84418
O               1.71625             0.27876             3.25414
H               1.24528            -0.47715             3.65047
H               0.32844            -1.05520            -0.21221
H              -0.13748             1.22569             1.83123
H              -0.46831            -0.51367             2.12014
H              -1.03756             0.10070            -0.24868
H               0.63589             0.68114            -0.50863

