%Mem=26GB
%NProc=12
%RWF=/home/michal/Cholesterol_grant/peroxy_params,20GB
#P CCSD(T)/cc-pVDZ SP Nosymm

PEscan

0 1
C               0.01682             0.00397             0.05460
C               0.16244             0.00577             1.56730
O               1.54604            -0.16004             1.83155
O               1.71882            -0.20503             3.27335
H               1.21904             0.58696             3.54594
H               0.36474            -0.95462            -0.35986
H              -0.19284             0.96987             1.99282
H              -0.41738            -0.81183             2.03489
H              -1.03990             0.14669            -0.22172
H               0.61211             0.81641            -0.38994

