%Mem=26GB
%NProc=12
%RWF=/home/michal/Cholesterol_grant/peroxy_params,20GB
#P CCSD(T)/cc-pVDZ SP Nosymm

PEscan

0 1
C               0.01816             0.00519             0.05165
C               0.14679            -0.00097             1.56598
O               1.53008            -0.15953             1.84359
O               1.67962            -0.22992             3.28533
H               1.31277             0.63461             3.54821
H               0.37826            -0.94798            -0.36502
H              -0.22055             0.95649             1.99457
H              -0.43009            -0.82602             2.02261
H              -1.03654             0.14132            -0.23566
H               0.61140             0.82494            -0.38233

