%Mem=26GB
%NProc=12
%RWF=/home/michal/Cholesterol_grant/peroxy_params,20GB
#P CCSD(T)/cc-pVDZ SP Nosymm

PEscan

0 1
C               0.01550             0.00227             0.05690
C               0.17542             0.01461             1.56807
O               1.55892            -0.15812             1.82106
O               1.75539            -0.17245             3.26285
H               1.13838             0.52688             3.54762
H               0.35393            -0.96157            -0.35308
H              -0.16893             0.98526             1.98847
H              -0.40764            -0.79568             2.04592
H              -1.04291             0.14912            -0.21052
H               0.61184             0.80783            -0.39836

