%Mem=26GB
%NProc=12
%RWF=/home/michal/Cholesterol_grant/peroxy_params,20GB
#P CCSD(T)/cc-pVDZ SP Nosymm

PEscan

0 1
C               0.02689            -0.00205             0.02565
C               0.01619             0.01035             1.54562
O               1.37706             0.00296             1.94476
O               1.32552            -0.05353             3.40911
H               2.15175             0.42648             3.58265
H               0.53464            -0.90427            -0.34934
H              -0.49008             0.91053             1.94152
H              -0.49696            -0.88178             1.95000
H              -1.00658             0.00545            -0.35577
H               0.55146             0.88399            -0.36529

