%Mem=26GB
%NProc=12
%RWF=/home/michal/Cholesterol_grant/peroxy_params,20GB
#P CCSD(T)/cc-pVDZ SP Nosymm

PEscan

0 1
C               0.01023            -0.01656             0.05974
C               0.20647             0.11344             1.56122
O               1.58956            -0.07270             1.79519
O               1.84798             0.03059             3.23091
H               0.94895             0.03586             3.60392
H               0.33796            -1.00999            -0.28237
H              -0.11483             1.11285             1.91946
H              -0.38014            -0.66011             2.10148
H              -1.05380             0.11428            -0.19299
H               0.59751             0.75048            -0.46762

