%Mem=26GB
%NProc=12
%RWF=/home/michal/Cholesterol_grant/peroxy_params,20GB
#P CCSD(T)/cc-pVDZ SP Nosymm

PEscan

0 1
C               0.02646             0.00022             0.02747
C               0.02397             0.00322             1.54761
O               1.38776            -0.02981             1.93868
O               1.35329            -0.10217             3.40103
H               2.09357             0.50119             3.57840
H               0.51744            -0.90795            -0.35536
H              -0.46553             0.90918             1.95173
H              -0.50208            -0.88253             1.94898
H              -1.00869             0.02709            -0.34855
H               0.56370             0.87972            -0.36106

