%Mem=26GB
%NProc=12
%RWF=/home/michal/Cholesterol_grant/peroxy_params,20GB
#P CCSD(T)/cc-pVDZ SP Nosymm

PEscan

0 1
C               0.01867            -0.03703             0.03919
C               0.09462             0.22512             1.53476
O               1.44649            -0.01726             1.90293
O               1.54005             0.30615             3.32038
H               1.65881            -0.59318             3.67049
H               0.30395            -1.07631            -0.18784
H              -0.17907             1.26823             1.77553
H              -0.58164            -0.44803             2.09663
H              -1.00930             0.13150            -0.31940
H               0.69731             0.63896            -0.50375

