%Mem=26GB
%NProc=12
%RWF=/home/michal/Cholesterol_grant/peroxy_params,20GB
#P CCSD(T)/cc-pVDZ SP Nosymm

PEscan

0 1
C               0.01061            -0.02440             0.06037
C               0.20436             0.15320             1.55715
O               1.58587            -0.03741             1.80237
O               1.82659             0.12371             3.23125
H               0.97886            -0.17326             3.60934
H               0.33857            -1.02786            -0.25126
H              -0.11195             1.16128             1.88933
H              -0.38863            -0.60182             2.11888
H              -1.05291             0.09888            -0.19839
H               0.59853             0.72582            -0.49011

