%Mem=256MB 
%NProc=48 

#P HF/6-31G* SCF(Conver=6) NoSymm Test 
   Pop=mk IOp(6/33=2) GFInput GFPrint 

MEP - Input generated by R.E.D.-III.x MOLECULE 

0 1 
  O        0.00000000      0.00000000      0.00000000
  H        0.96655970     -0.00000000      0.00000000
  O        4.35273380     -1.31587295     -4.94191249
  H        4.07837958     -1.12558674     -5.85003345
  C       -1.22692822      4.10644205     -0.75605205
  C       -1.12816625      2.57358352     -0.51824478
  H       -0.43260494      2.45176137      0.32434734
  C       -0.52518083      1.77257561     -1.67876704
  H       -1.18596889      1.85470765     -2.55392820
  C        0.87682492      2.32055334     -2.04657352
  H        1.53003697      2.07534362     -1.19255041
  C       -1.90173601      4.54437739      0.59129178
  H       -1.11594302      4.47621965      1.36035092
  C        0.21482189      4.60040462     -0.99604088
  H        0.79836852      4.43720551     -0.07854846
  H        0.25078099      5.67515393     -1.19997627
  C        1.49850017      1.58834144     -3.28709269
  C       -2.51213285      2.17576571      0.01184769
  H       -2.47428573      1.25429669      0.59942743
  H       -3.21456182      2.00364530     -0.81379615
  C        0.88536775      3.86231332     -2.17281184
  H        0.38270540      4.16151122     -3.09837912
  H        1.91811712      4.21851481     -2.26320329
  C       -2.94145594      3.40267522      0.86220310
  H       -3.95080366      3.73459232      0.59028455
  H       -2.97598812      3.15052552      1.92606362
  C       -0.44895973      0.26660091     -1.34976926
  H       -1.46493432     -0.14438125     -1.36548851
  C       -2.52577106      5.95911389      0.71531026
  H       -3.36027328      6.02167260      0.00000000
  C       -2.13846292      4.46649444     -1.95173036
  H       -1.81227714      3.99489146     -2.88237565
  H       -3.17469186      4.15906023     -1.78143090
  H       -2.14468499      5.54792579     -2.12380060
  C        1.28078837      0.07337592     -3.17868008
  C        3.03420716      1.86231511     -3.31059178
  H        3.43135073      1.68072779     -2.30214121
  H        3.20982923      2.92176897     -3.52579722
  C        0.40953508     -0.48697592     -2.32353956
  H        0.32486956     -1.57267692     -2.28611618
  C        0.86356637      2.07768525     -4.61736423
  H        1.14603296      3.11175935     -4.83641885
  H        1.18739774      1.46959856     -5.46566934
  H       -0.22846914      2.02126102     -4.57935649
  C        2.09970950     -0.80475778     -4.10702409
  H        1.93788217     -1.86073833     -3.86944293
  H        1.76563894     -0.66103285     -5.14699667
  C        3.83192481      1.00419514     -4.30434403
  H        3.54174507      1.24261478     -5.33828052
  H        4.90123913      1.22852636     -4.21935747
  C       -3.12330719      6.15744075      2.13077686
  H       -3.72589580      5.28124218      2.39536160
  H       -2.29908081      6.18977099      2.86005420
  C        3.60153668     -0.48567105     -4.05261074
  H        3.98409240     -0.74492511     -3.05768556
  C       -1.53556967      7.09133852      0.38964465
  H       -0.64078077      7.02283752      1.02125705
  H       -1.98637212      8.07348320      0.56023935
  H       -1.21007580      7.06849758     -0.65272144
  C       -4.00792487      7.40275764      2.30852814
  H       -3.42000291      8.31181774      2.13879329
  H       -4.79171184      7.39168820      1.53878525
  C       -4.64861142      7.46259760      3.70497876
  H       -3.84867075      7.43436144      4.45909866
  H       -5.24127005      6.54932012      3.85929707
  C       -5.55154223      8.68254160      4.00203931
  H       -5.91719651      8.54291816      5.03019743
  C       -6.78676439      8.74179124      3.08808647
  H       -6.50974426      8.94286248      2.04677489
  H       -7.46821614      9.53976334      3.40455927
  H       -7.34473386      7.79819943      3.10946604
  C       -4.78062591     10.01289651      3.97533797
  H       -4.43411000     10.26001014      2.96520598
  H       -5.41723738     10.83887229      4.31263554
  H       -3.90271105      9.97870094      4.63123031



