%Mem=256MB 
%NProc=48 

#P HF/6-31G* SCF(Conver=6) NoSymm Test 
   Pop=mk IOp(6/33=2) GFInput GFPrint 

MEP - Input generated by R.E.D.-III.x MOLECULE 

0 1 
  O        0.00000000      0.00000000      0.00000000
  H        0.96653489      0.00000000     -0.00000000
  O        4.35570046     -1.26954429     -4.95384808
  H        4.08101083     -1.07050660     -5.85999419
  C       -1.23484466      4.10741766     -0.72861411
  C       -1.13594963      2.57327743     -0.50160196
  H       -0.44134459      2.44644949      0.34088167
  C       -0.52869880      1.78247575     -1.66659831
  H       -1.18764168      1.86932358     -2.54273859
  C        0.87332368      2.33635459     -2.02655381
  H        1.52506590      2.08389937     -1.17353596
  C       -1.91513761      4.52921599      0.62021601
  H       -1.13514378      4.42581423      1.38937014
  C        0.20577999      4.60724541     -0.95892578
  H        0.78709580      4.43882652     -0.04089032
  H        0.23713489      5.68387479     -1.15479757
  C        1.49781104      1.61549357     -3.27238657
  C       -2.52100197      2.16806021      0.02401731
  H       -2.47553984      1.25504445      0.62416517
  H       -3.21534661      1.97504308     -0.80386320
  C        0.88215622      3.87945549     -2.13903227
  H        0.38432152      4.18694457     -3.06444828
  H        1.91543857      4.23606668     -2.22126138
  C       -2.97491780      3.40211542      0.85298029
  H       -3.96634203      3.74219174      0.53092797
  H       -3.06436912      3.16108909      1.91664513
  C       -0.44906986      0.27447982     -1.34814595
  H       -1.46414069     -0.13859153     -1.36712353
  C       -2.51555652      5.94963379      0.76153735
  H       -3.30398617      6.04473194      0.00000000
  C       -2.13983537      4.47816696     -1.92568431
  H       -1.80540651      4.01822253     -2.85912848
  H       -3.17643734      4.16600467     -1.76695025
  H       -2.14664000      5.56172790     -2.08553861
  C        1.28212129      0.09929453     -3.17705825
  C        3.03331337      1.89098605     -3.29157839
  H        3.42954060      1.69937348     -2.28462251
  H        3.20828372      2.95275316     -3.49564434
  C        0.41141182     -0.46986548     -2.32718000
  H        0.32856644     -1.55597538     -2.29900188
  C        0.86427477      2.11564356     -4.59927529
  H        1.14792023      3.15112634     -4.80993429
  H        1.18831989      1.51371462     -5.45182859
  H       -0.22785391      2.06010287     -4.56263822
  C        2.10236411     -0.76928812     -4.11325927
  H        1.94182799     -1.82762895     -3.88552762
  H        1.76793039     -0.61625163     -5.15179730
  C        3.83248258      1.04358206     -4.29342163
  H        3.54219922      1.29167159     -5.32505188
  H        4.90148752      1.26843728     -4.20597401
  C       -3.26065012      6.13882514      2.11452149
  H       -3.66575567      7.16086291      2.13257340
  H       -4.13569791      5.47812809      2.10467334
  C        3.60388432     -0.44896300     -4.05618260
  H        3.98724983     -0.71747962     -3.06403763
  C       -1.50388976      7.07998741      0.48924385
  H       -0.56883086      6.94168460      1.04096094
  H       -1.92106923      8.05012915      0.78195828
  H       -1.24977145      7.14437340     -0.57245048
  C       -2.51273302      5.88511163      3.44260664
  H       -3.28129889      5.79425030      4.22086767
  H       -2.01374410      4.90924488      3.40699457
  C       -1.50912990      6.96962991      3.87342066
  H       -1.98640008      7.95457904      3.76636911
  H       -0.65143160      6.97338767      3.19097059
  C       -0.96415419      6.85165203      5.31770596
  H       -0.24354004      7.67477882      5.43402085
  C       -0.19506040      5.54109861      5.55410957
  H       -0.85972646      4.67037774      5.51578538
  H        0.28520658      5.54246113      6.53931543
  H        0.58870238      5.39666139      4.80104060
  C       -2.05072810      7.05510988      6.38689689
  H       -2.78389118      6.24040887      6.38409908
  H       -1.60772123      7.08953337      7.38883119
  H       -2.59366269      7.99455077      6.22958171



