%Mem=256MB 
%NProc=48 

#P HF/6-31G* SCF(Conver=6) NoSymm Test 
   Pop=mk IOp(6/33=2) GFInput GFPrint 

MEP - Input generated by R.E.D.-III.x MOLECULE 

0 1 
  O        6.72848141      0.81977908      0.00000000
  H        7.24047287     -0.00000000     -0.00000000
  O       11.39497798     -1.42744852      4.27052675
  H       11.34191206     -1.14092400      5.19316450
  C        2.97084996     -0.05153458      2.01000882
  C        4.19549020      0.60090372      1.30565416
  H        4.43704832     -0.05974787      0.46154506
  C        5.47156947      0.67052605      2.15299594
  H        5.30194656      1.33727093      3.01057709
  C        5.85726804     -0.73898534      2.67202829
  H        6.16750504     -1.31255604      1.78268410
  C        1.92578340      0.08313758      0.84847860
  H        2.29251681     -0.60447349      0.07444776
  C        3.38976084     -1.48568225      2.38643617
  H        3.58855236     -2.05223639      1.46597222
  H        2.58586273     -2.01304815      2.91359841
  C        7.10865779     -0.70398182      3.61806072
  C        3.63977706      1.89643723      0.68966153
  H        4.23371485      2.22450448     -0.16801350
  H        3.65030841      2.71459527      1.42123167
  C        4.64943818     -1.49536762      3.27652668
  H        4.38913987     -1.06471328      4.24876476
  H        4.92972262     -2.53657008      3.47348690
  C        2.18200659      1.52173068      0.29543878
  H        1.46976559      2.24070240      0.71289891
  H        2.03588153      1.54100267     -0.79005291
  C        6.64194274      1.29508066      1.36424677
  H        6.44882113      2.36778265      1.24841408
  C        0.41290978     -0.25268054      0.99061259
  H        0.00000000      0.00000000      0.00000000
  C        2.54409729      0.72849747      3.27533776
  H        3.38481348      0.90650661      3.95100756
  H        2.11495841      1.70425180      3.03380105
  H        1.79269934      0.16970929      3.84107575
  C        8.19212344      0.21541661      3.03877189
  C        7.69540852     -2.14582937      3.72383720
  H        7.77774480     -2.55872112      2.70873785
  H        6.98811028     -2.78625225      4.26153967
  C        7.96153791      1.09632042      2.05123175
  H        8.78630952      1.70071877      1.67470063
  C        6.73923368     -0.18880206      5.03584600
  H        6.10631209     -0.90589200      5.56707324
  H        7.62873571     -0.02847096      5.65011639
  H        6.20710146      0.76586213      4.98462814
  C        9.57975666      0.10433689      3.64344117
  H       10.28601557      0.72824994      3.08698793
  H        9.56779392      0.48652035      4.67668554
  C        9.07412117     -2.23878289      4.39531096
  H        9.00820600     -1.94205098      5.45252099
  H        9.42811206     -3.27585121      4.38249012
  C        0.09978118     -1.75222557      1.20913558
  H        0.51809084     -2.08296698      2.16918011
  H       -0.99059984     -1.84714362      1.31523890
  C       10.09159487     -1.34349608      3.68871335
  H       10.23365129     -1.70246912      2.66187596
  C       -0.39300889      0.58171568      2.00688712
  H       -0.22144562      0.25378247      3.03630170
  H       -1.46462611      0.46869445      1.80676861
  H       -0.16418659      1.64999962      1.95410602
  C        0.55081168     -2.70949634      0.09477068
  H        0.17433746     -2.33415320     -0.86659217
  H        1.64382405     -2.71043291      0.01950307
  C        0.05162047     -4.14530190      0.32601335
  H       -1.04539907     -4.12802934      0.39981426
  H        0.41447469     -4.48957501      1.30548953
  C        0.44978025     -5.19695411     -0.73570094
  H        0.00166961     -6.14506887     -0.40316185
  C        1.96957358     -5.41911167     -0.81095381
  H        2.48913062     -4.53458880     -1.19710092
  H        2.20864766     -6.25484003     -1.47853657
  H        2.38850874     -5.64962910      0.17573222
  C       -0.13179537     -4.88558686     -2.12478948
  H        0.31386631     -3.98195559     -2.55633302
  H        0.06078652     -5.70928282     -2.82168286
  H       -1.21671958     -4.73423791     -2.07853409



