%Mem=256MB 
%NProc=48 

#P HF/6-31G* SCF(Conver=6) NoSymm Test 
   Pop=mk IOp(6/33=2) GFInput GFPrint 

MEP - Input generated by R.E.D.-III.x MOLECULE 

0 1 
  O        6.84732905      0.78345703      0.00000000
  H        7.41336599     -0.00000000      0.00000000
  O       10.45599941     -1.98522404      4.94230352
  H       10.14203390     -1.87185953      5.85045798
  C        2.79735558     -0.61462766      0.75592124
  C        4.10013693      0.19933824      0.51925773
  H        4.60535718     -0.29400067     -0.32333924
  C        5.10214114      0.17661188      1.67992843
  H        4.65064596      0.66595806      2.55518797
  C        5.47381785     -1.28188519      2.04845023
  H        6.05335873     -1.67061046      1.19452954
  C        2.04969903     -0.32343935     -0.59262891
  H        2.56319540     -0.92369045     -1.36051802
  C        3.23607322     -2.07369553      0.99823345
  H        3.70984167     -2.45394465      0.08175965
  H        2.38321391     -2.72877509      1.20203780
  C        6.43171841     -1.35932409      3.28870533
  C        3.61541997      1.55533351     -0.01061749
  H        4.38670051      2.06454033     -0.59510477
  H        3.34129132      2.22452590      0.81503048
  C        4.22579148     -2.18684878      2.17601345
  H        3.68940748     -1.95084035      3.10090960
  H        4.53791934     -3.23356660      2.26842038
  C        2.37217073      1.18654421     -0.86570972
  H        1.51278010      1.81414883     -0.60037259
  H        2.56361792      1.35887365     -1.92885488
  C        6.37010245      0.99257198      1.35023745
  H        6.11170121      2.05763068      1.36649014
  C        0.53671577     -0.64206036     -0.71522077
  H        0.00000000      0.00000000      0.00000000
  C        1.97194938     -0.08272193      1.95006292
  H        2.54600531     -0.06791858      2.88011385
  H        1.61430768      0.93673160      1.77670650
  H        1.09186009     -0.71039750      2.12488238
  C        7.53621408     -0.29993966      3.17863086
  C        7.10371325     -2.76710856      3.31369690
  H        7.48185574     -2.98545240      2.30524214
  H        6.34505685     -3.52675089      3.53040352
  C        7.48346430      0.73426062      2.32311040
  H        8.31638221      1.43576641      2.28500407
  C        5.66496004     -1.12630327      4.61910505
  H        4.98980179     -1.95835556      4.84040157
  H        6.34870916     -1.03295370      5.46645192
  H        5.07382246     -0.20638007      4.57976921
  C        8.72736207     -0.45295076      4.10671310
  H        9.49107540      0.29380222      3.86834663
  H        8.41599587     -0.26444352      5.14661916
  C        8.26669169     -2.91439905      4.30682128
  H        7.90453861     -2.81640716      5.34090164
  H        8.70727070     -3.91428063      4.22256048
  C        0.02055892     -0.27904488     -2.13158761
  H        0.44460932      0.68317965     -2.43373241
  H        0.40798553     -1.02019713     -2.84809642
  C        9.34317164     -1.85940807      4.05337854
  H        9.77642629     -2.02034197      3.05847269
  C        0.19867832     -2.10765131     -0.38742869
  H        0.80111994     -2.79267867     -0.99710310
  H       -0.85438529     -2.32721518     -0.58769454
  H        0.37893816     -2.34968889      0.66246840
  C       -1.50921535     -0.19668515     -2.26269650
  H       -1.96447149     -1.13729897     -1.93010539
  H       -1.88661303      0.57492121     -1.57784299
  C       -2.01115397      0.07846409     -3.69277564
  H       -3.10998103      0.02288014     -3.69435801
  H       -1.66686766     -0.73723510     -4.34502108
  C       -1.59921832      1.42081235     -4.33431446
  H       -0.50128712      1.47139693     -4.35609736
  C       -2.11182308      2.63259783     -3.54000169
  H       -3.20732002      2.61633790     -3.46918677
  H       -1.82493182      3.57061388     -4.02880680
  H       -1.71283850      2.65770873     -2.52078609
  C       -2.09008070      1.48400602     -5.78964206
  H       -3.18609339      1.44327011     -5.83488088
  H       -1.77202867      2.41254444     -6.27737322
  H       -1.70167706      0.64544456     -6.37905188



