%Mem=256MB 
%NProc=48 

#P HF/6-31G* SCF(Conver=6) NoSymm Test 
   Pop=mk IOp(6/33=2) GFInput GFPrint 

MEP - Input generated by R.E.D.-III.x MOLECULE 

0 1 
  O        0.00000000      0.00000000      0.00000000
  H       -0.47412732      0.45301113     -0.71006014
  O       -3.27626516      5.86345571      0.00000000
  H       -2.97603387      6.55037652      0.61169824
  C        4.18015866      1.14142734     -0.38314156
  C        2.79588296      0.58443224      0.05116782
  H        2.34859359      0.16525978     -0.86143408
  C        1.80185740      1.63541872      0.56054670
  H        2.19500996      2.08535191      1.48373979
  C        1.59520501      2.74725863     -0.49900824
  H        1.06211813      2.26929697     -1.33776132
  C        4.89080203     -0.19507242     -0.79408286
  H        4.44773259     -0.49172110     -1.75813675
  C        3.90618948      2.14978745     -1.51776501
  H        3.47668448      1.60732805     -2.37234807
  H        4.82693790      2.61915660     -1.87842335
  C        0.65231121      3.89222056      0.01270333
  C        3.12955840     -0.61360938      0.95041889
  H        2.30675957     -1.33253502      0.99513270
  H        3.33059584     -0.28836182      1.97922755
  C        2.93594806      3.26326732     -1.07300732
  H        3.44335158      3.88583586     -0.32881483
  H        2.74148503      3.91806393     -1.93032928
  C        4.40411748     -1.21346152      0.29537342
  H        5.19049336     -1.37901345      1.04139731
  H        4.19079067     -2.19021313     -0.14838210
  C        0.45064098      0.99745383      0.94682516
  H        0.58822497      0.42599720      1.87196167
  C        6.42992865     -0.22185181     -0.97905323
  H        6.87978775     -0.00000000     -0.00000000
  C        4.94059324      1.81686062      0.78157044
  H        4.36536858      2.62434852      1.24193377
  H        5.18694128      1.10501503      1.57517231
  H        5.88254011      2.25184155      0.43147747
  C       -0.56336702      3.30011031      0.73806846
  C        0.14099667      4.70501558     -1.21692172
  H       -0.21135080      3.99364831     -1.97684192
  H        0.97955437      5.24739918     -1.66658497
  C       -0.62662715      2.02287638      1.14927636
  H       -1.53261707      1.66609257      1.63836250
  C        1.38935514      4.84410867      0.99391678
  H        2.15332304      5.43332614      0.47793227
  H        0.70029280      5.55093580      1.46273929
  H        1.87416506      4.28469990      1.79966292
  C       -1.72933494      4.23651213      0.99724034
  H       -2.57160618      3.68306652      1.42383731
  H       -1.44001306      4.99422546      1.74289743
  C       -0.99759572      5.69146665     -0.91563003
  H       -0.64797404      6.48955078     -0.24414390
  H       -1.32431301      6.18067841     -1.84024507
  C        6.91272017     -1.64398855     -1.40260557
  H        6.10060960     -2.36615092     -1.27054935
  H        7.12658085     -1.64385851     -2.47998600
  C       -2.18492918      4.97942760     -0.26799699
  H       -2.59807674      4.25220471     -0.97785182
  C        6.94374325      0.82911041     -1.98036507
  H        6.43398977      0.72936540     -2.94679153
  H        8.01530838      0.70271445     -2.16191268
  H        6.79343245      1.85258255     -1.62769325
  C        8.12856127     -2.18875910     -0.62470068
  H        7.87831374     -2.18272284      0.44524233
  H        8.26497258     -3.24552123     -0.88815915
  C        9.46509889     -1.44494880     -0.80539010
  H       10.18846174     -1.85748540     -0.08641013
  H        9.33473614     -0.39199599     -0.52096577
  C       10.10546567     -1.50363829     -2.20909935
  H        9.37630826     -1.12623671     -2.94016658
  C       10.48262784     -2.93540104     -2.62308661
  H       11.19955540     -3.36933993     -1.91383513
  H       10.94983464     -2.94500232     -3.61441533
  H        9.61205152     -3.59765881     -2.66428436
  C       11.33729490     -0.58587152     -2.26947728
  H       12.10423853     -0.91407887     -1.55607187
  H       11.78930861     -0.59027328     -3.26792653
  H       11.07726809      0.45020996     -2.02342694



