%Mem=256MB 
%NProc=48 

#P HF/6-31G* SCF(Conver=6) NoSymm Test 
   Pop=mk IOp(6/33=2) GFInput GFPrint 

MEP - Input generated by R.E.D.-III.x MOLECULE 

0 1 
  O        6.09230840      2.82618167      0.00000000
  H        5.52216271      2.56260980      0.73459866
  O        0.00000000      0.00000000      0.00000000
  H       -0.23655116     -0.56708625     -0.74741364
  C        8.78405952     -0.51076060     -0.73670307
  C        7.96766789      0.81354275     -0.77541986
  H        7.95919324      1.18576462      0.25836409
  C        6.49433002      0.65638555     -1.16974539
  H        6.43275995      0.30196520     -2.20866647
  C        5.78832587     -0.36481161     -0.24060103
  H        5.74059686      0.11402252      0.75167117
  C       10.17788016      0.07722159     -0.32175080
  H       10.02728286      0.42519764      0.70946351
  C        8.09468302     -1.42436812      0.29485806
  H        8.16378182     -0.95716044      1.28712409
  H        8.59673729     -2.39632840      0.36918001
  C        4.29987871     -0.62528973     -0.66351740
  C        8.85107081      1.78733779     -1.57419429
  H        8.63690451      2.82941824     -1.32085894
  H        8.68126489      1.67615959     -2.65284646
  C        6.61187497     -1.66273562     -0.05678332
  H        6.56519660     -2.26560801     -0.96934518
  H        6.16023927     -2.27502515      0.73224741
  C       10.30019674      1.36815095     -1.19349545
  H       10.90014440      1.18527335     -2.09079698
  H       10.81807847      2.15491226     -0.63414733
  C        5.75375781      2.01036128     -1.14641260
  H        6.09984160      2.60975884     -1.99632879
  C       11.49633495     -0.74738025     -0.27271352
  H       12.25698728     -0.00000000      0.00000000
  C        8.82982770     -1.20577567     -2.11735781
  H        7.83290887     -1.32790222     -2.54883715
  H        9.42650136     -0.64596189     -2.84205547
  H        9.26615475     -2.20548836     -2.03437518
  C        3.60196816      0.69740188     -1.00724598
  C        3.54644685     -1.27921505      0.53607647
  H        3.77271281     -0.69912314      1.44159519
  H        3.94229449     -2.28599833      0.70699868
  C        4.26390517      1.84576727     -1.22521201
  H        3.69908787      2.75192571     -1.44242553
  C        4.21245385     -1.55863037     -1.90184168
  H        4.53169796     -2.57593917     -1.65649131
  H        3.19078185     -1.62568922     -2.28388534
  H        4.83867910     -1.19093881     -2.72024735
  C        2.08796799      0.66682485     -1.10910788
  H        1.69808307      1.67888544     -1.25545707
  H        1.78575543      0.08185796     -1.99245552
  C        2.01984695     -1.35471481      0.38094957
  H        1.74997699     -2.02358380     -0.44960555
  H        1.57181178     -1.78170510      1.28534264
  C       11.53366406     -1.83911685      0.82491775
  H       10.78775434     -2.60872957      0.58838129
  H       12.50871934     -2.34285434      0.75394823
  C        1.42442081      0.02872059      0.12081160
  H        1.60576731      0.66752472      0.99400913
  C       11.98324912     -1.36419593     -1.59981442
  H       11.42326261     -2.26558641     -1.86577867
  H       13.03573011     -1.65478793     -1.50454161
  H       11.91420271     -0.66755994     -2.44034510
  C       11.34019093     -1.39143639      2.28693475
  H       10.35092317     -0.93743877      2.41372709
  H       11.33564695     -2.29649122      2.90765152
  C       12.42646917     -0.42990776      2.79721165
  H       12.37933255      0.50775217      2.22766229
  H       13.41227660     -0.86712453      2.57973946
  C       12.37534287     -0.07459931      4.30243242
  H       13.20294448      0.62973715      4.47324811
  C       12.62591583     -1.28994602      5.21071532
  H       11.80959116     -2.01877375      5.14898290
  H       12.70791559     -0.98128150      6.25918007
  H       13.55549729     -1.80478953      4.94072721
  C       11.07742551      0.65042353      4.69547635
  H       10.20572590     -0.00896477      4.61225374
  H       11.12479601      0.99961110      5.73329114
  H       10.89861195      1.52387209      4.05744375



