%Mem=256MB 
%NProc=48 

#P HF/6-31G* SCF(Conver=6) NoSymm Test 
   Pop=mk IOp(6/33=2) GFInput GFPrint 

MEP - Input generated by R.E.D.-III.x MOLECULE 

0 1 
  O        0.00000000      0.00000000      0.00000000
  H       -0.41065001      0.47652306     -0.73379369
  O       -4.36148711      5.10617678      0.00000000
  H       -4.33984366      5.72084728      0.74691600
  C        3.83733819      1.91190943      0.73528721
  C        2.54344159      1.04818589      0.77502564
  H        2.38036349      0.71249354     -0.25845345
  C        1.26966232      1.80518843      1.16905955
  H        1.36145378      2.15366544      2.20774436
  C        1.05302484      3.02700186      0.23910791
  H        0.80980844      2.61072783     -0.75272783
  C        4.85938090      0.79623960      0.32136995
  H        4.57711717      0.54120333     -0.70944427
  C        3.59100247      3.02874175     -0.29725237
  H        3.45880174      2.57439172     -1.28907718
  H        4.45238315      3.70303329     -0.37254654
  C       -0.19152876      3.88408446      0.66180794
  C        2.94089447     -0.20453025      1.57474437
  H        2.31229679     -1.06292291      1.32176599
  H        2.83247112     -0.03212865      2.65326392
  C        2.34244295      3.86363810      0.05400205
  H        2.55157709      4.43220764      0.96580282
  H        2.18666973      4.60753253     -0.73580435
  C        4.43305312     -0.42727314      1.19463756
  H        5.05445070     -0.50952483      2.09220660
  H        4.57650388     -1.35895299      0.63656894
  C        0.03246737      0.88272694      1.14643311
  H        0.09781588      0.19375989      1.99640887
  C        6.40146073      0.99665214      0.27152437
  H        6.78149753     -0.00000000     -0.00000000
  C        4.16859729      2.52585950      2.11537604
  H        3.31338520      3.05312797      2.54609345
  H        4.47706747      1.76887633      2.84092407
  H        4.98223550      3.25232486      2.03193127
  C       -1.37678944      2.97257754      1.00699665
  C       -0.60487808      4.79114411     -0.53846669
  H       -0.64144694      4.16854873     -1.44329149
  H        0.17427497      5.54133683     -0.71070592
  C       -1.25335329      1.65297672      1.22570224
  H       -2.14418222      1.06465508      1.44392052
  C        0.11834444      4.77024541      1.89907741
  H        0.83207218      5.56197723      1.65252312
  H       -0.78240246      5.25703172      2.28112305
  H        0.53506064      4.17598995      2.71783178
  C       -2.74032040      3.63120219      1.10938172
  H       -3.51628820      2.87373172      1.25707273
  H       -2.77062136      4.28971575      1.99214432
  C       -1.96115334      5.49587206     -0.38312195
  H       -1.92725911      6.21721117      0.44666157
  H       -2.19124284      6.06974991     -1.28794287
  C        6.89003834      1.97302937     -0.82678832
  H        6.53449875      2.98377584     -0.58900354
  H        7.98643123      2.02367134     -0.75742236
  C       -3.07863317      4.48653296     -0.12112170
  H       -3.18055893      3.82936313     -0.99357743
  C        7.10168943      1.35567125      1.59799300
  H        6.96772969      2.40844969      1.86355711
  H        8.17958442      1.18190557      1.50216295
  H        6.74954406      0.75131318      2.43899093
  C        6.52523113      1.65013300     -2.28863433
  H        5.43529452      1.63769787     -2.41711268
  H        6.88810807      2.48070321     -2.90679743
  C        7.10870784      0.32991754     -2.81512506
  H        6.74131170     -0.49993375     -2.19743570
  H        8.20280128      0.34029939     -2.68988354
  C        6.78000708      0.00911321     -4.28853440
  H        5.68648457      0.06601170     -4.40460324
  C        7.21274540     -1.42403091     -4.63717975
  H        8.29910075     -1.54035747     -4.53161485
  H        6.95124572     -1.67902290     -5.67052712
  H        6.73397630     -2.15790758     -3.97883094
  C        7.41078492      1.01164582     -5.26878133
  H        8.50477259      1.00808006     -5.17640641
  H        7.16518227      0.75223668     -6.30489704
  H        7.06417280      2.03525858     -5.09560003



