%Mem=256MB 
%NProc=48 

#P HF/6-31G* SCF(Conver=6) NoSymm Test 
   Pop=mk IOp(6/33=2) GFInput GFPrint 

MEP - Input generated by R.E.D.-III.x MOLECULE 

0 1 
  O        6.84338742      0.78940322      0.00000000
  H        7.40109008     -0.00000000      0.00000000
  O       10.39356249     -2.03550849      4.95384808
  H       10.07250204     -1.92600698      5.85999419
  C        2.77619346     -0.57208658      0.72861411
  C        4.08624369      0.23236035      0.50160196
  H        4.59062431     -0.26176685     -0.34088167
  C        5.08251067      0.19269953      1.66659831
  H        4.63136073      0.68076921      2.54273859
  C        5.43912265     -1.27197678      2.02655381
  H        6.02137513     -1.65860789      1.17353596
  C        2.03915836     -0.25985016     -0.62021601
  H        2.57367637     -0.83723461     -1.38937014
  C        3.19922482     -2.03710250      0.95892578
  H        3.67220494     -2.41470388      0.04089032
  H        2.33799571     -2.68393971      1.15479757
  C        6.38821231     -1.36607190      3.27238657
  C        3.61800650      1.59739694     -0.02401731
  H        4.38993096      2.08708787     -0.62416517
  H        3.37500491      2.27586605      0.80386320
  C        4.18391408     -2.16957904      2.13903227
  H        3.64552006     -1.94040487      3.06444828
  H        4.48887389     -3.21926637      2.22126138
  C        2.34819489      1.25606084     -0.85298029
  H        1.49837842      1.86956379     -0.53092797
  H        2.49343509      1.46819408     -1.91664513
  C        6.36009115      0.99779618      1.34814595
  H        6.11175263      2.06518773      1.36712353
  C        0.53260374     -0.58906556     -0.76153735
  H        0.00000000      0.00000000      0.00000000
  C        1.95119851     -0.04687564      1.92568431
  H        2.51982099     -0.05462185      2.85912848
  H        1.60802025      0.97987537      1.76695025
  H        1.06228962     -0.66654619      2.08553861
  C        7.50209001     -0.31504475      3.17705825
  C        7.04921181     -2.77913353      3.29157839
  H        7.43433662     -2.99218349      2.28462251
  H        6.28298915     -3.53469084      3.49564434
  C        7.46453291      0.72450687      2.32718000
  H        8.30379445      1.41886854      2.29900188
  C        5.61416382     -1.13723320      4.59927529
  H        4.93211539     -1.96638292      4.80993429
  H        6.29275854     -1.05457182      5.45182859
  H        5.02935403     -0.21320543      4.56263822
  C        8.68478248     -0.48378307      4.11325927
  H        9.45653551      0.25800829      3.88552762
  H        8.36681974     -0.29894318      5.15179730
  C        8.20244719     -2.94288063      4.29342163
  H        7.83232659     -2.84894670      5.32505188
  H        8.63562914     -3.94571903      4.20597401
  C       -0.05184380     -0.08968704     -2.11452149
  H       -1.12032913     -0.34855152     -2.13257340
  H       -0.01714262      1.00622585     -2.10467334
  C        9.28955747     -1.89495928      4.05618260
  H        9.73007116     -2.05313002      3.06403763
  C        0.19314829     -2.06755767     -0.48924385
  H        0.84564570     -2.75145089     -1.04096094
  H       -0.83991852     -2.28661631     -0.78195828
  H        0.28719140     -2.31225660      0.57245048
  C        0.58693046     -0.55414152     -3.44260664
  H        0.21766806      0.12600152     -4.22086767
  H        1.67187816     -0.39859616     -3.40699457
  C        0.28025752     -1.99960021     -3.87342066
  H       -0.79957608     -2.17812469     -3.76636911
  H        0.77209102     -2.70228102     -3.19097059
  C        0.69107201     -2.37662644     -5.31770596
  H        0.43459858     -3.44013189     -5.43402085
  C        2.20522400     -2.24856689     -5.55410957
  H        2.53285193     -1.20329385     -5.51578538
  H        2.48123120     -2.64160411     -6.53931543
  H        2.77543186     -2.80535160     -4.80104060
  C       -0.10206589     -1.60658082     -6.38689689
  H        0.14028501     -0.53768800     -6.38409908
  H        0.12543971     -1.98826298     -7.38883119
  H       -1.18262049     -1.70521603     -6.22958171



