%Mem=256MB 
%NProc=48 

#P HF/6-31G* SCF(Conver=6) NoSymm Test 
   Pop=mk IOp(6/33=2) GFInput GFPrint 

MEP - Input generated by R.E.D.-III.x MOLECULE 

0 1 
  O        0.00000000      0.00000000      0.00000000
  H       -0.23062438      0.58417660     -0.73464959
  O       -2.38718682      6.27890554     -0.00000000
  H       -2.15635092      6.85092458      0.74543756
  C        4.25237068      0.52749074      0.71930247
  C        2.75334286      0.13704379      0.75059966
  H        2.49112336     -0.11122201     -0.28731680
  C        1.80979567      1.27530918      1.15412176
  H        2.02374546      1.57275446      2.19081157
  C        2.01168973      2.49741047      0.21791547
  H        1.63090423      2.18305508     -0.76809493
  C        4.86577360     -0.84605154      0.30263489
  H        4.53460878     -0.98096356     -0.73723122
  C        4.40803450      1.65018440     -0.32114636
  H        4.14149590      1.25275685     -1.31106434
  H        5.44970837      1.99169616     -0.39017358
  C        1.13154538      3.72429939      0.64572576
  C        2.71913413     -1.19250150      1.52679041
  H        1.85163485     -1.79802619      1.25016191
  H        2.65627089     -1.01673840      2.60838367
  C        3.50551354      2.85724976      0.00947292
  H        3.89805314      3.34886545      0.90504295
  H        3.59373968      3.59225708     -0.79874516
  C        4.06983819     -1.88240451      1.15697374
  H        4.61807166     -2.15870736      2.06207227
  H        3.90860159     -2.80996142      0.59809614
  C        0.33428315      0.82421510      1.14168567
  H        0.16959812      0.15574616      1.99470165
  C        6.41504109     -0.99094728      0.26206656
  H        6.81711164      0.00000000      0.00000000
  C        4.77983849      0.99654262      2.09335526
  H        4.25667241      1.88510597      2.45599675
  H        4.67099626      0.22618473      2.86191416
  H        5.84270280      1.25395667      2.02887899
  C       -0.28973362      3.26586066      0.99940974
  C        1.04182464      4.71782766     -0.55395042
  H        0.79434859      4.14393741     -1.45790255
  H        2.02704665      5.16247078     -0.73021933
  C       -0.61688519      1.98236819      1.22306218
  H       -1.65260106      1.72907429      1.44760882
  C        1.72840500      4.45366413      1.88035467
  H        2.66341239      4.96300688      1.62859725
  H        1.04426712      5.21190465      2.26928613
  H        1.92869310      3.75246710      2.69599652
  C       -1.35114416      4.34551330      1.10571891
  H       -2.33609427      3.89379508      1.25912904
  H       -1.15337168      4.97679135      1.98673066
  C        0.00246205      5.83792419     -0.39421420
  H        0.28116474      6.50592484      0.43417251
  H       -0.02514960      6.45548471     -1.29910519
  C        7.08470707     -1.41843193      1.59029526
  H        6.58022338     -0.94929801      2.44099638
  H        6.95702979     -2.50209449      1.72487727
  C       -1.38820564      5.26369210     -0.12534875
  H       -1.70956246      4.67856193     -0.99585716
  C        6.81802979     -1.95459914     -0.87318689
  H        6.38575541     -2.94971021     -0.70991054
  H        7.90404527     -2.07363143     -0.94349937
  H        6.46262168     -1.59295926     -1.84447531
  C        8.58148090     -1.07522019      1.67766548
  H        9.11754759     -1.53120467      0.83677184
  H        8.69977541      0.01110609      1.56519063
  C        9.21204377     -1.53533896      3.00181614
  H        9.06817690     -2.62112281      3.09980851
  H        8.65429284     -1.08076192      3.83354161
  C       10.71449469     -1.22573270      3.19924683
  H       10.97703306     -1.62743594      4.18920110
  C       11.00940752      0.28313047      3.23257544
  H       10.83129461      0.75171605      2.25780058
  H       12.05625380      0.47003434      3.49800381
  H       10.38123823      0.79630423      3.97031489
  C       11.60749560     -1.94047715      2.17150597
  H       11.45194453     -1.54979625      1.15926759
  H       12.66749235     -1.80395898      2.41447326
  H       11.40627833     -3.01800070      2.14882886



