%Mem=256MB 
%NProc=48 

#P HF/6-31G* SCF(Conver=6) NoSymm Test 
   Pop=mk IOp(6/33=2) GFInput GFPrint 

MEP - Input generated by R.E.D.-III.x MOLECULE 

0 1 
  O        0.00000000      0.00000000      0.00000000
  H        0.96652404     -0.00000000     -0.00000000
  O        4.36789977     -1.39902938     -4.90480900
  H        4.09411443     -1.23068498     -5.81743015
  C       -1.24327447      4.07180955     -0.87091371
  C       -1.14519044      2.55264005     -0.58104705
  H       -0.44453231      2.45680606      0.26008989
  C       -0.53772170      1.72741378     -1.72076663
  H       -1.19602288      1.78326812     -2.59970351
  C        0.86425941      2.27913709     -2.09505464
  H        1.51408223      2.05000651     -1.23411715
  C       -1.90389334      4.54307960      0.46253944
  H       -1.11813287      4.38804601      1.21595555
  C        0.18887672      4.58358761     -1.10337831
  H        0.76489180      4.45360005     -0.17584960
  H        0.19873919      5.65808180     -1.33100919
  C        1.49229056      1.52344681     -3.31877055
  C       -2.53125689      2.17798753     -0.02449027
  H       -2.47979606      1.30124084      0.62700617
  H       -3.22961469      1.93471792     -0.83554547
  C        0.88240675      3.82173567     -2.25203659
  H        0.40358018      4.10503689     -3.19450510
  H        1.91952129      4.16826618     -2.32658784
  C       -2.99439878      3.45997816      0.73660924
  H       -3.97590736      3.78189982      0.37777516
  H       -3.10318605      3.27481851      1.81020766
  C       -0.44924716      0.23073749     -1.35629647
  H       -1.46244229     -0.18758029     -1.36315983
  C       -2.32013884      6.03725674      0.61012360
  H       -1.61362932      6.61779476      0.00000000
  C       -2.13038343      4.39214104     -2.09417226
  H       -1.75203550      3.93265471     -3.01090182
  H       -3.15755798      4.04080149     -1.96164406
  H       -2.16904702      5.47255102     -2.26814236
  C        1.28465012      0.00938144     -3.17713801
  C        3.02629583      1.80705516     -3.34792053
  H        3.42374510      1.65268897     -2.33504970
  H        3.19486698      2.86208791     -3.58862810
  C        0.41591003     -0.53854836     -2.31143346
  H        0.33861247     -1.62374880     -2.25090279
  C        0.85514018      1.97739943     -4.66059568
  H        1.13062646      3.00787625     -4.90406510
  H        1.18433951      1.35168365     -5.49387994
  H       -0.23650437      1.91424699     -4.62237095
  C        2.11027323     -0.88316610     -4.08553983
  H        1.95430245     -1.93481454     -3.82592316
  H        1.77711194     -0.76330836     -5.12885209
  C        3.83129612      0.93128262     -4.32026764
  H        3.54169404      1.14428449     -5.35992090
  H        4.89896138      1.16446478     -4.23843727
  C       -3.75406313      6.37823761      0.13480384
  H       -3.98347561      5.84669629     -0.79482287
  H       -4.46412207      5.99842177      0.88171938
  C        3.60989936     -0.55396828     -4.03549969
  H        3.99221693     -0.78863378     -3.03439462
  C       -2.12487170      6.48570450      2.07331183
  H       -2.75459647      5.89370119      2.74930274
  H       -2.38406934      7.53914113      2.21935499
  H       -1.08402359      6.35675443      2.39019295
  C       -4.04618148      7.87711559     -0.09052715
  H       -5.13085726      7.98923594     -0.21211620
  H       -3.78536614      8.44717932      0.80914817
  C       -3.33889710      8.47897988     -1.31670629
  H       -3.60815349      7.88354875     -2.20138831
  H       -2.25180919      8.37525071     -1.20048361
  C       -3.64290822      9.96489912     -1.62354673
  H       -3.05949967     10.21130225     -2.52318875
  C       -3.16864795     10.90990914     -0.50683448
  H       -3.74790587     10.77181524      0.41334192
  H       -3.28133438     11.95740238     -0.80897935
  H       -2.11211875     10.74395672     -0.26535975
  C       -5.12172970     10.21251825     -1.96527122
  H       -5.77082738     10.05481161     -1.09632678
  H       -5.27517453     11.24362329     -2.30368525
  H       -5.46403880      9.54446608     -2.76445839



