%Mem=256MB 
%NProc=48 

#P HF/6-31G* SCF(Conver=6) NoSymm Test 
   Pop=mk IOp(6/33=2) GFInput GFPrint 

MEP - Input generated by R.E.D.-III.x MOLECULE 

0 1 
  O        5.74573069      3.47551291      0.00000000
  H        5.10979287      3.31252308      0.70936747
  O        0.00000000      0.00000000      0.00000000
  H       -0.08117062     -0.74217650     -0.61543194
  C        8.81620930      0.41370204      0.35166714
  C        7.88711098      1.58626926     -0.06904800
  H        7.70688235      2.16084430      0.85064066
  C        6.50253086      1.16736029     -0.57793437
  H        6.61982258      0.58759324     -1.50500688
  C        5.77688083      0.29676630      0.47915411
  H        5.55276252      0.97131311      1.32229511
  C       10.09483315      1.22460045      0.76077874
  H        9.84364247      1.70846936      1.71594195
  C        8.08560899     -0.33469003      1.48508400
  H        7.98631311      0.34186139      2.34609733
  H        8.65538805     -1.20179634      1.83454808
  C        4.38920627     -0.22914220     -0.03045123
  C        8.76497534      2.47627965     -0.96085010
  H        8.41307795      3.51157198     -0.97321494
  H        8.75831833      2.12109460     -1.99940973
  C        6.68864184     -0.81821419      1.04418498
  H        6.81742316     -1.60692570      0.29580944
  H        6.19888548     -1.29463024      1.90135545
  C       10.18122274      2.33746885     -0.33580272
  H       10.91791560      2.06166447     -1.09971078
  H       10.52434349      3.28385526      0.09387835
  C        5.64183013      2.39194787     -0.95385728
  H        6.04104866      2.82687302     -1.87735834
  C       11.43918982      0.48073835      0.95718557
  H       11.68888755      0.00000000      0.00000000
  C        9.13868564     -0.54487271     -0.81717084
  H        8.23841761     -0.96884499     -1.26946412
  H        9.69403409     -0.04356914     -1.61567834
  H        9.75143007     -1.38463314     -0.47172518
  C        3.62277137      0.89060229     -0.74677410
  C        3.54753926     -0.68988448      1.19976690
  H        3.59591945      0.09814974      1.96417568
  H        4.00992120     -1.57859469      1.64247604
  C        4.19784430      2.03426576     -1.15386365
  H        3.58511880      2.79495670     -1.63680236
  C        4.55498423     -1.41542299     -1.01913653
  H        4.93044911     -2.30812268     -0.51005471
  H        3.60438489     -1.68689004     -1.48486769
  H        5.24885301     -1.16409786     -1.82694088
  C        2.14531896      0.65466737     -1.00167635
  H        1.68524210      1.55460694     -1.42137830
  H        2.01930586     -0.14272700     -1.75143198
  C        2.06900432     -0.98259830      0.90235729
  H        1.97580994     -1.84539464      0.22637629
  H        1.54656362     -1.25144465      1.82743006
  C       12.61548024      1.45225997      1.24927492
  H       13.53528446      0.85273265      1.25955180
  H       12.72596446      2.15195702      0.41099618
  C        1.38672894      0.22706142      0.26404521
  H        1.39003799      1.05942466      0.97860742
  C       11.38494439     -0.62886981      2.02413632
  H       10.98229665     -0.26239949      2.97511746
  H       12.38974764     -1.02244017      2.21880097
  H       10.76393694     -1.47064968      1.70748391
  C       12.52508442      2.26209913      2.55363259
  H       11.58573227      2.82913754      2.56702207
  H       12.47695480      1.58471754      3.41499711
  C       13.67613957      3.26786795      2.74729709
  H       13.46455542      3.87501846      3.64009754
  H       13.67322674      3.96737228      1.89876951
  C       15.09809195      2.68462052      2.89173954
  H       15.32060889      2.08910679      1.99487343
  C       15.23301821      1.76378209      4.11489244
  H       14.99901064      2.30803744      5.03924011
  H       16.25597005      1.38092868      4.20552089
  H       14.56241117      0.90025415      4.05851175
  C       16.13191306      3.82046093      2.95646953
  H       15.96417460      4.45215326      3.83837269
  H       17.15284894      3.42674728      3.01965088
  H       16.07452905      4.46393910      2.07100209



