%Mem=256MB 
%NProc=48 

#P HF/6-31G* SCF(Conver=6) NoSymm Test 
   Pop=mk IOp(6/33=2) GFInput GFPrint 

MEP - Input generated by R.E.D.-III.x MOLECULE 

0 1 
  O        0.00000000      0.00000000      0.00000000
  H       -0.47340190      0.45474678     -0.70943231
  O       -3.26859522      5.86752133      0.00000000
  H       -2.96888193      6.55304681      0.61351167
  C        4.18370412      1.13636272     -0.37194701
  C        2.79649252      0.58083353      0.05609165
  H        2.35149975      0.16656158     -0.85985108
  C        1.80307508      1.63210841      0.56597189
  H        2.19564198      2.07993235      1.49052087
  C        1.59972187      2.74571997     -0.49212324
  H        1.06799679      2.26960050     -1.33279299
  C        4.89371021     -0.20174009     -0.78137299
  H        4.45004982     -0.49767122     -1.74530983
  C        3.91323277      2.14719178     -1.50566545
  H        3.48637629      1.60669187     -2.36276115
  H        4.83448521      2.61795162     -1.86286310
  C        0.65704031      3.89100569      0.01897193
  C        3.12236516     -0.62172516      0.95182671
  H        2.29909543     -1.34070889      0.98467359
  H        3.31352452     -0.30228145      1.98436153
  C        2.94251011      3.26067690     -1.06173541
  H        3.44842178      3.88153051     -0.31511593
  H        2.75141241      3.91703030     -1.91864059
  C        4.40348560     -1.21806343      0.30695413
  H        5.18479012     -1.37514733      1.06047020
  H        4.20152832     -2.19752479     -0.13635180
  C        0.45036873      0.99545211      0.94912388
  H        0.58546162      0.42253232      1.87372410
  C        6.43276733     -0.23075005     -0.97154550
  H        6.89640909     -0.00000000     -0.00000000
  C        4.94285165      1.80860612      0.79492864
  H        4.37159241      2.62120413      1.25115894
  H        5.18061362      1.09630454      1.59076989
  H        5.88959059      2.23571197      0.44770820
  C       -0.56089553      3.29939261      0.74085664
  C        0.14974833      4.70610004     -1.21077893
  H       -0.20198065      3.99632855     -1.97248196
  H        0.99014416      5.24783745     -1.65782569
  C       -0.62618339      2.02184223      1.15073541
  H       -1.53343575      1.66539347      1.63773175
  C        1.39240050      4.84081084      1.00351732
  H        2.15805798      5.43051434      0.49055672
  H        0.70262899      5.54732968      1.47179026
  H        1.87472499      4.27980342      1.80964292
  C       -1.72647236      4.23673962      0.99831291
  H       -2.57058279      3.68358333      1.42164898
  H       -1.43833550      4.99280579      1.74610953
  C       -0.98800016      5.69379921     -0.91062108
  H       -0.63866692      6.49028846     -0.23709075
  H       -1.31193293      6.18492704     -1.83519539
  C        6.89453358     -1.65553263     -1.36787727
  H        6.45496940     -2.38238816     -0.67482885
  H        6.47990658     -1.89142770     -2.35877473
  C       -2.17785323      4.98241742     -0.26683441
  H       -2.59035046      4.25692498     -0.97883402
  C        6.93982756      0.80060568     -1.99490860
  H        6.45122629      0.66077418     -2.96762435
  H        8.01887321      0.70752140     -2.14945155
  H        6.75278353      1.82739541     -1.67312854
  C        8.41733215     -1.87398115     -1.36920018
  H        8.89014769     -1.29001338     -2.16719216
  H        8.82848919     -1.48284804     -0.42758038
  C        8.84026392     -3.34953152     -1.49406984
  H        8.42487369     -3.90521473     -0.64089982
  H        9.93405533     -3.41181770     -1.39291093
  C        8.43461429     -4.07886429     -2.79263677
  H        7.34014584     -4.03180967     -2.88565579
  C        8.82612454     -5.56308566     -2.71179113
  H        9.91424347     -5.67622944     -2.62158332
  H        8.50900621     -6.10816953     -3.60821890
  H        8.36814108     -6.05037095     -1.84332340
  C        9.04284629     -3.42871620     -4.04543921
  H       10.13937335     -3.42885393     -3.99078131
  H        8.75592203     -3.97780827     -4.94951332
  H        8.71590246     -2.39164633     -4.17313824



