%Mem=256MB 
%NProc=48 

#P HF/6-31G* SCF(Conver=6) NoSymm Test 
   Pop=mk IOp(6/33=2) GFInput GFPrint 

MEP - Input generated by R.E.D.-III.x MOLECULE 

0 1 
  O        5.74808781      3.47529280      0.00000000
  H        5.11516674      3.31098828      0.71177288
  O        0.00000000      0.00000000      0.00000000
  H       -0.08146983     -0.74092725     -0.61689758
  C        8.81618656      0.41104846      0.34710304
  C        7.88801554      1.58445665     -0.07306653
  H        7.70968181      2.15987609      0.84640933
  C        6.50249701      1.16680062     -0.57989765
  H        6.61825222      0.58743906     -1.50743741
  C        5.77689243      0.29644959      0.47760104
  H        5.55247611      0.97135389      1.32038503
  C       10.09644563      1.22161008      0.75266609
  H        9.84486509      1.71266352      1.70454419
  C        8.08656303     -0.33557166      1.48213590
  H        7.98889605      0.34213312      2.34247189
  H        8.65596143     -1.20279055      1.83169098
  C        4.38938842     -0.22929217     -0.03239993
  C        8.76514365      2.47297310     -0.96748778
  H        8.41748379      3.50974747     -0.97443490
  H        8.75074326      2.12146730     -2.00720472
  C        6.68832342     -0.81828474      1.04389669
  H        6.81496539     -1.60907166      0.29728533
  H        6.19924019     -1.29197384      1.90295183
  C       10.18467070      2.32638832     -0.35153036
  H       10.91259109      2.03750722     -1.11898859
  H       10.54059644      3.27249467      0.06768799
  C        5.64218897      2.39226057     -0.95415161
  H        6.04066832      2.82736025     -1.87788498
  C       11.43907071      0.47764072      0.95801699
  H       11.69341565      0.00000000      0.00000000
  C        9.13513196     -0.54835321     -0.82207715
  H        8.23338918     -0.97355593     -1.27013185
  H        9.68653931     -0.04732759     -1.62338154
  H        9.74987168     -1.38730135     -0.47850513
  C        3.62262587      0.89157891     -0.74672040
  C        3.54800201     -0.69254826      1.19706295
  H        3.59674232      0.09381149      1.96316724
  H        4.01032947     -1.58231927      1.63766414
  C        4.19776053      2.03552357     -1.15289991
  H        3.58490749      2.79697871     -1.63446635
  C        4.55531171     -1.41370385     -1.02321805
  H        4.93166214     -2.30708487     -0.51598427
  H        3.60450589     -1.68484587     -1.48865474
  H        5.24834634     -1.16050136     -1.83112021
  C        2.14496649      0.65632543     -1.00128308
  H        1.68484444      1.55711374     -1.41910946
  H        2.01853132     -0.13962660     -1.75249017
  C        2.06929241     -0.98451862      0.89950856
  H        1.97584238     -1.84586388      0.22171521
  H        1.54716230     -1.25528063      1.82419288
  C       12.61865360      1.45722761      1.22763500
  H       13.53239588      0.85717156      1.33200361
  H       12.76830022      2.05135945      0.31828048
  C        1.38687573      0.22645121      0.26391629
  H        1.39050272      1.05747821      0.98002703
  C       11.36787593     -0.65071428      2.00521690
  H       10.91237270     -0.31769658      2.94314740
  H       12.37088426     -1.02625333      2.23689721
  H       10.78228093     -1.49976326      1.64207078
  C       12.52314958      2.45541340      2.40384668
  H       13.27804172      3.23316884      2.23034656
  H       11.56067914      2.98016173      2.35919203
  C       12.70598029      1.91704862      3.83750763
  H       11.89186449      1.22504677      4.08226361
  H       12.59238039      2.76541220      4.52938002
  C       14.04790948      1.22386342      4.15598424
  H       14.16421554      0.36634332      3.47817473
  C       14.03166995      0.67474821      5.59177316
  H       13.92301557      1.48856868      6.32031036
  H       14.96075283      0.14222775      5.82531634
  H       13.19858755     -0.02105471      5.74425995
  C       15.25490672      2.15278244      3.94860338
  H       15.17425021      3.04389304      4.58487042
  H       16.18961331      1.64318334      4.20905934
  H       15.34308294      2.49117574      2.91123997



