%Mem=256MB 
%NProc=48 

#P HF/6-31G* SCF(Conver=6) NoSymm Test 
   Pop=mk IOp(6/33=2) GFInput GFPrint 

MEP - Input generated by R.E.D.-III.x MOLECULE 

0 1 
  O        0.00000000      0.00000000      0.00000000
  H        0.96653050     -0.00000000     -0.00000000
  O        4.36649721     -1.38600874     -4.91444085
  H        4.08984825     -1.21755494     -5.82617748
  C       -1.24161634      4.07283042     -0.86174302
  C       -1.14575382      2.55279116     -0.57642898
  H       -0.44581299      2.45391771      0.26495720
  C       -0.53854550      1.72971009     -1.71785663
  H       -1.19718830      1.78706622     -2.59647374
  C        0.86364026      2.28191217     -2.09152369
  H        1.51400883      2.04922219     -1.23193722
  C       -1.90193056      4.54156487      0.47268753
  H       -1.11601852      4.38840885      1.22634224
  C        0.19115437      4.58355632     -1.09217661
  H        0.76678619      4.44894240     -0.16511401
  H        0.20271089      5.65894942     -1.31543031
  C        1.48953865      1.52934058     -3.31816451
  C       -2.53258178      2.17848115     -0.02137144
  H       -2.48309747      1.29851201      0.62589878
  H       -3.23182359      1.94086388     -0.83336107
  C        0.88386161      3.82491205     -2.24336979
  H        0.40639276      4.11220411     -3.18534090
  H        1.92151452      4.17013642     -2.31588913
  C       -2.99194677      3.45795160      0.74627255
  H       -3.97460733      3.78268229      0.39279617
  H       -3.09655461      3.26849302      1.81953458
  C       -0.44920598      0.23234185     -1.35600085
  H       -1.46209821     -0.18671794     -1.36372078
  C       -2.32190172      6.03379653      0.61520165
  H       -1.62058832      6.61861444      0.00000000
  C       -2.12757504      4.39912739     -2.08422709
  H       -1.74428922      3.94973309     -3.00388680
  H       -3.15329645      4.04150689     -1.95785015
  H       -2.17078682      5.48127363     -2.24944016
  C        1.28434197      0.01489063     -3.17797637
  C        3.02288653      1.81572001     -3.35108093
  H        3.42350371      1.66056720     -2.33955282
  H        3.18906803      2.87132716     -3.59080398
  C        0.41673900     -0.53485901     -2.31223234
  H        0.34065499     -1.62020185     -2.25274705
  C        0.84776668      1.98475689     -4.65733592
  H        1.12292204      3.01535872     -4.90063768
  H        1.17354036      1.35983419     -5.49256233
  H       -0.24377143      1.92205754     -4.61534184
  C        2.11020240     -0.87572813     -4.08818919
  H        1.95737926     -1.92774715     -3.82818530
  H        1.77399672     -0.75686150     -5.13065518
  C        3.82639192      0.94273741     -4.32702313
  H        3.53242530      1.15584958     -5.36541878
  H        4.89381729      1.17826172     -4.24887836
  C       -3.75064054      6.37761138      0.12948505
  H       -3.98687893      5.82004438     -0.78307349
  H       -4.47175988      6.03930324      0.88516437
  C        3.60933606     -0.54303459     -4.04242866
  H        3.99520037     -0.77733745     -3.04261421
  C       -2.12846550      6.49197028      2.07551599
  H       -2.75736812      5.90282727      2.75470724
  H       -2.39002861      7.54606474      2.21264366
  H       -1.08772648      6.36716627      2.39441972
  C       -3.96601799      7.87282861     -0.16202963
  H       -3.79811602      8.46581452      0.74500733
  H       -3.19916968      8.20158961     -0.87776153
  C       -5.34521331      8.21361405     -0.75570074
  H       -5.46798386      7.65661027     -1.69597103
  H       -5.35491411      9.27866052     -1.03157226
  C       -6.57475160      7.93853049      0.13636567
  H       -6.57853799      6.87093812      0.39889839
  C       -7.86873080      8.22504483     -0.64240954
  H       -7.92617207      9.28295423     -0.92958296
  H       -8.75525171      7.99618879     -0.03998296
  H       -7.92347796      7.62811421     -1.56010976
  C       -6.54342326      8.74542177      1.44407820
  H       -6.51261840      9.82295971      1.23590676
  H       -7.43803476      8.54940925      2.04603734
  H       -5.67257046      8.50014422      2.06045690



