%Mem=256MB 
%NProc=48 

#P HF/6-31G* SCF(Conver=6) NoSymm Test 
   Pop=mk IOp(6/33=2) GFInput GFPrint 

MEP - Input generated by R.E.D.-III.x MOLECULE 

0 1 
  O        5.51151083      3.83617404      0.00000000
  H        4.99255583      3.48127512      0.73409889
  O        0.00000000      0.00000000      0.00000000
  H       -0.13365851     -0.60168971     -0.74584214
  C        8.72579935      1.00518362     -0.73327865
  C        7.70752237      2.17306631     -0.75937736
  H        7.63268790      2.52330797      0.27953933
  C        6.28570656      1.76598573     -1.16149994
  H        6.29238544      1.40252650     -2.19922002
  C        5.76518592      0.64017864     -0.22787378
  H        5.63044039      1.11108115      0.76009299
  C       10.00673336      1.79380504     -0.31627219
  H        9.80498180      2.09574610      0.72161926
  C        8.22277558     -0.01335041      0.30429984
  H        8.22832418      0.46132499      1.29609221
  H        8.89049382     -0.88308457      0.36884197
  C        4.34538775      0.12475107     -0.65387747
  C        8.42717172      3.29228012     -1.53446795
  H        8.05545021      4.28098464     -1.25150666
  H        8.26998745      3.18755795     -2.61568053
  C        6.79642128     -0.50021706     -0.02629417
  H        6.84244025     -1.12282929     -0.92519217
  H        6.45611347     -1.16109829      0.77910911
  C        9.93349593      3.09610170     -1.17422604
  H       10.53417321      3.00925918     -2.08384119
  H       10.33134289      3.95351470     -0.62169270
  C        5.32162217      2.97053901     -1.14421204
  H        5.56158188      3.61808312     -1.99550940
  C       11.37045531      1.04207173     -0.26367752
  H       11.14025632     -0.00000000     -0.00000000
  C        8.89405937      0.32631445     -2.11050821
  H        7.95663897     -0.09733717     -2.47987280
  H        9.25109538      1.02421784     -2.87310045
  H        9.61571549     -0.49489480     -2.04826664
  C        3.42967203      1.30571636     -1.00366878
  C        3.71299351     -0.64714619      0.54558396
  H        3.83445006     -0.03545665      1.45045212
  H        4.27573408     -1.57058068      0.71891100
  C        3.88296975      2.55064422     -1.22515597
  H        3.17018434      3.34435601     -1.44709614
  C        4.42339277     -0.81191640     -1.89044431
  H        4.90984040     -1.75996032     -1.64218243
  H        3.42947768     -1.05237233     -2.27589058
  H        4.98091196     -0.34411859     -2.70743558
  C        1.94412069      1.01301735     -1.10832534
  H        1.38537532      1.94177579     -1.25966440
  H        1.74991017      0.38114969     -1.98973803
  C        2.22243320     -0.98480804      0.38849693
  H        2.07347444     -1.69263934     -0.44029990
  H        1.85300471     -1.48002923      1.29362555
  C       12.17647724      1.03334652     -1.58601946
  H       11.50785013      0.87274715     -2.43837955
  H       12.61325349      2.03076575     -1.72992215
  C        1.39785866      0.27439268      0.12284691
  H        1.46447413      0.93777460      0.99401441
  C       12.23253508      1.61550273      0.88006625
  H       12.44225528      2.67960350      0.71365739
  H       13.19408640      1.10005463      0.96935821
  H       11.72039319      1.52431598      1.84432876
  C       13.31274823     -0.00801847     -1.67081079
  H       13.92229415      0.23668491     -2.54970239
  H       13.97904904      0.09592160     -0.80614168
  C       12.82624448     -1.46262538     -1.78674153
  H       12.15282210     -1.53680404     -2.65317059
  H       12.21907925     -1.71729665     -0.90781009
  C       13.92368879     -2.54360739     -1.93379149
  H       13.39166540     -3.50390389     -2.00602426
  C       14.84076265     -2.62875128     -0.70223189
  H       15.45754047     -1.72919487     -0.59398376
  H       15.52204350     -3.48355421     -0.78223294
  H       14.26037348     -2.74964708      0.22006786
  C       14.74545079     -2.38706421     -3.22421982
  H       15.36305748     -1.48183470     -3.20459502
  H       15.42085414     -3.23936421     -3.36082884
  H       14.09663400     -2.33058930     -4.10627237



