%Mem=256MB 
%NProc=48 

#P HF/6-31G* SCF(Conver=6) NoSymm Test 
   Pop=mk IOp(6/33=2) GFInput GFPrint 

MEP - Input generated by R.E.D.-III.x MOLECULE 

0 1 
  O        5.76554860      3.44570893      0.00000000
  H        5.12863153      3.28910632      0.70994014
  O        0.00000000      0.00000000      0.00000000
  H       -0.08355778     -0.74288060     -0.61426126
  C        8.81939994      0.36972308      0.37502788
  C        7.89593196      1.54401435     -0.05396657
  H        7.71717492      2.12616769      0.86131691
  C        6.51039006      1.12993336     -0.56435461
  H        6.62684258      0.54570809     -1.48874980
  C        5.77724097      0.26691448      0.49340550
  H        5.55472787      0.94474799      1.33434851
  C       10.10285330      1.17344303      0.78630658
  H        9.86716873      1.64912131      1.75161303
  C        8.07957414     -0.37176725      1.50768728
  H        7.97909062      0.30918744      2.36511014
  H        8.64285573     -1.23977691      1.86448906
  C        4.38822216     -0.25327243     -0.01829296
  C        8.78042429      2.42125701     -0.94982377
  H        8.42549204      3.45489820     -0.98723521
  H        8.79015493      2.04551862     -1.98102962
  C        6.68247514     -0.85084320      1.06258926
  H        6.81080270     -1.64079128      0.31535789
  H        6.18834704     -1.32452739      1.91876782
  C       10.18598858      2.30159885     -0.29949471
  H       10.94617838      2.05335000     -1.05004624
  H       10.49233033      3.25188611      0.14742357
  C        5.65746761      2.35768581     -0.94822975
  H        6.06105964      2.78547515     -1.87315955
  C       11.44873776      0.42579478      0.97414578
  H       11.73436842      0.00000000      0.00000000
  C        9.14192161     -0.59090038     -0.79260897
  H        8.24118847     -1.00706035     -1.25113352
  H        9.70608705     -0.09253863     -1.58671126
  H        9.74631082     -1.43558214     -0.44573432
  C        3.62964114      0.86841083     -0.73989114
  C        3.54074058     -0.70601925      1.21087506
  H        3.59159721      0.08387832      1.97318879
  H        3.99695778     -1.59606507      1.65726285
  C        4.21194028      2.00742029     -1.14959003
  H        3.60449302      2.76985247     -1.63643672
  C        4.55053038     -1.44283796     -1.00356978
  H        4.91816239     -2.33687130     -0.49105352
  H        3.60017620     -1.70911183     -1.47277005
  H        5.24946850     -1.19765111     -1.80893835
  C        2.15148164      0.64013761     -0.99780279
  H        1.69770053      1.54152183     -1.42124798
  H        2.02282900     -0.15860773     -1.74569509
  C        2.06125501     -0.99126749      0.91043324
  H        1.96499668     -1.85540245      0.23657526
  H        1.53500254     -1.25469107      1.83490025
  C       12.56662644      1.41908452      1.38401595
  H       12.47882042      2.32844047      0.78206235
  H       12.39779915      1.72801277      2.42749647
  C        1.38727845      0.22029969      0.26707577
  H        1.39303304      1.05464192      0.97931653
  C       11.36393943     -0.72608058      1.99182266
  H       10.96801986     -0.37049222      2.95135686
  H       12.34948234     -1.16145218      2.18264823
  H       10.72017187     -1.53806446      1.64598282
  C       13.99889794      0.87888449      1.23922541
  H       14.10534274     -0.05528299      1.80369859
  H       14.17727374      0.61335058      0.18827178
  C       15.09502748      1.84275827      1.73138715
  H       16.06540856      1.32746568      1.67353304
  H       14.92496224      2.04686362      2.79850530
  C       15.22527247      3.19218740      0.99298403
  H       14.26468489      3.72152778      1.06752585
  C       15.55249297      3.01588947     -0.49831280
  H       16.49606714      2.46971948     -0.62776868
  H       15.66142601      3.98797848     -0.99256748
  H       14.77194780      2.46236579     -1.03027189
  C       16.28630793      4.06908759      1.67721172
  H       17.27508055      3.59462244      1.63072168
  H       16.36541917      5.04928576      1.19329505
  H       16.04659854      4.23502397      2.73383425



