%Mem=256MB 
%NProc=48 

#P HF/6-31G* SCF(Conver=6) NoSymm Test 
   Pop=mk IOp(6/33=2) GFInput GFPrint 

MEP - Input generated by R.E.D.-III.x MOLECULE 

0 1 
  O        0.00000000      0.00000000      0.00000000
  H        0.96654500     -0.00000000      0.00000000
  O        4.36117683     -1.26632113     -4.94689250
  H        4.08749940     -1.06993782     -5.85392180
  C       -1.23887811      4.10600060     -0.72893718
  C       -1.13703345      2.57209855     -0.50128376
  H       -0.44058092      2.44668684      0.33993938
  C       -0.53056661      1.78166615     -1.66696151
  H       -1.19061510      1.86763209     -2.54233902
  C        0.87038040      2.33739437     -2.02837525
  H        1.52284941      2.08681570     -1.17536164
  C       -1.91622495      4.52895225      0.62079740
  H       -1.13286790      4.43665720      1.38742876
  C        0.20077282      4.60761270     -0.96128832
  H        0.78339877      4.44007709     -0.04399072
  H        0.23082621      5.68435244     -1.15708689
  C        1.49591240      1.61643097     -3.27358117
  C       -2.52021085      2.16574243      0.02774470
  H       -2.47437939      1.24926741      0.62255112
  H       -3.21838925      1.97927716     -0.79841271
  C        0.87648035      3.88056966     -2.14211802
  H        0.37645781      4.18660479     -3.06683728
  H        1.90902219      4.23884935     -2.22623388
  C       -2.96763746      3.39604941      0.86554157
  H       -3.96594764      3.73184221      0.56052806
  H       -3.03830695      3.15094522      1.92976064
  C       -0.44906783      0.27382751     -1.34832883
  H       -1.46361213     -0.14054631     -1.36753076
  C       -2.52961712      5.94484093      0.75577906
  H       -3.32417266      6.03021621      0.00000000
  C       -2.14677563      4.47485828     -1.92425260
  H       -1.81584716      4.01259290     -2.85781041
  H       -3.18316188      4.16391353     -1.76137614
  H       -2.15334471      5.55811918     -2.08627137
  C        1.28298005      0.09984854     -3.17672034
  C        3.03084119      1.89538232     -3.29325156
  H        3.42750181      1.70758889     -2.28574941
  H        3.20329792      2.95694110     -3.50042484
  C        0.41276329     -0.46985131     -2.32669763
  H        0.33152100     -1.55606879     -2.29766969
  C        0.86131645      2.11373772     -4.60098919
  H        1.14062181      3.15043433     -4.81148651
  H        1.18868681      1.51330682     -5.45336025
  H       -0.23056493      2.05339389     -4.56526848
  C        2.10562477     -0.76838688     -4.11101079
  H        1.94679960     -1.82669920     -3.88195285
  H        1.77226693     -0.61743424     -5.15020326
  C        3.83242588      1.04729688     -4.29250543
  H        3.54254347      1.29248353     -5.32493293
  H        4.90092047      1.27436892     -4.20461771
  C       -3.23750561      6.15006972      2.12315806
  H       -3.71885686      7.13880135      2.10018656
  H       -4.05339638      5.42444420      2.21499246
  C        3.60637738     -0.44516137     -4.05227660
  H        3.98854049     -0.71076990     -3.05888461
  C       -1.52756598      7.08473476      0.49206278
  H       -0.61385774      6.97475985      1.08655410
  H       -1.97412662      8.05345542      0.74610225
  H       -1.23025511      7.13123011     -0.55865421
  C       -2.34382671      6.07642155      3.37311742
  H       -1.92887547      5.06671313      3.48127687
  H       -1.48092894      6.74168628      3.24392130
  C       -3.05559117      6.48791211      4.67623711
  H       -3.41952938      7.51929497      4.56117533
  H       -2.31337084      6.51798155      5.48786007
  C       -4.23415131      5.60457548      5.13847835
  H       -4.97729835      5.56781545      4.32915970
  C       -4.91880689      6.23323718      6.36286185
  H       -4.22331970      6.29739152      7.20971556
  H       -5.78106992      5.63885524      6.68611103
  H       -5.27280367      7.24767593      6.14592001
  C       -3.79983462      4.16289123      5.44692406
  H       -3.04260180      4.14654169      6.24169180
  H       -4.65069133      3.56170181      5.78711984
  H       -3.37372056      3.66277567      4.57135710



