%Mem=256MB 
%NProc=48 

#P HF/6-31G* SCF(Conver=6) NoSymm Test 
   Pop=mk IOp(6/33=2) GFInput GFPrint 

MEP - Input generated by R.E.D.-III.x MOLECULE 

0 1 
  O        5.51130118      3.84247399      0.00000000
  H        4.99178864      3.48927376      0.73453219
  O        0.00000000      0.00000000      0.00000000
  H       -0.13250594     -0.60089678     -0.74668617
  C        8.72533073      1.01045036     -0.72236831
  C        7.70733877      2.17825217     -0.75468504
  H        7.63128800      2.53238656      0.28282589
  C        6.28586922      1.77031114     -1.15721440
  H        6.29346015      1.40484617     -2.19425143
  C        5.76415711      0.64646868     -0.22154687
  H        5.62661688      1.12013996      0.76472440
  C       10.00585400      1.79993153     -0.30594139
  H        9.80587690      2.10233233      0.73216884
  C        8.22056820     -0.00422734      0.31802412
  H        8.22345037      0.47464096      1.30776895
  H        8.88866693     -0.87325539      0.38788423
  C        4.34571552      0.12939314     -0.64981877
  C        8.42866492      3.29449533     -1.53261722
  H        8.05527195      4.28425723     -1.25566558
  H        8.27549720      3.18455997     -2.61390445
  C        6.79514045     -0.49289714     -0.01361988
  H        6.84263699     -1.11956977     -0.90963789
  H        6.45349254     -1.15025801      0.79404087
  C        9.93372912      3.10109183     -1.16558185
  H       10.53931804      3.01420573     -2.07207520
  H       10.32733245      3.95975603     -0.61195657
  C        5.32144598      2.97476419     -1.14260307
  H        5.56132268      3.62070185     -1.99515515
  C       11.36683111      1.04564445     -0.25867950
  H       11.13871241     -0.00000000     -0.00000000
  C        8.89665835      0.32566312     -2.09625809
  H        7.96193539     -0.10753548     -2.46131862
  H        9.24674698      1.02177003     -2.86361790
  H        9.62465593     -0.49037247     -2.03061847
  C        3.42953020      1.30969245     -1.00026854
  C        3.71281550     -0.64409239      0.54826724
  H        3.83227508     -0.03292875      1.45378591
  H        4.27631778     -1.56700972      0.72169923
  C        3.88277130      2.55449665     -1.22277095
  H        3.16995084      3.34795189     -1.44550879
  C        4.42709843     -0.80653979     -1.88677540
  H        4.91247846     -1.75483758     -1.63740843
  H        3.43440054     -1.04655492     -2.27562454
  H        4.98727312     -0.33851262     -2.70182450
  C        1.94401275      1.01650228     -1.10520674
  H        1.38485684      1.94523846     -1.25518915
  H        1.75020554      0.38612293     -1.98779357
  C        2.22298779     -0.98340153      0.38868842
  H        2.07600060     -1.68973384     -0.44172600
  H        1.85297681     -1.48078717      1.29238895
  C       12.16755780      1.02353448     -1.58298000
  H       11.49122745      0.89379693     -2.43456561
  H       12.64545103      2.00201744     -1.72335766
  C        1.39749827      0.27532524      0.12449212
  H        1.46283978      0.93734430      0.99677606
  C       12.23641253      1.61155522      0.88299990
  H       12.45073454      2.67498370      0.71839525
  H       13.19500946      1.08946663      0.96576359
  H       11.72802621      1.52092095      1.84930323
  C       13.22921570     -0.08796789     -1.64997115
  H       13.96529402      0.03944230     -0.84716686
  H       12.73750710     -1.05095251     -1.45174006
  C       13.95350567     -0.19590815     -3.00441301
  H       13.20436430     -0.38539385     -3.78691951
  H       14.60237969     -1.08423481     -2.98540107
  C       14.81028498      1.01413156     -3.43447228
  H       14.16094568      1.90047376     -3.47251460
  C       15.36810159      0.79180811     -4.84952577
  H       16.03252085     -0.08159342     -4.87516143
  H       15.94593856      1.65837241     -5.19067521
  H       14.56366281      0.61880061     -5.57371067
  C       15.95027052      1.30702502     -2.44613355
  H       16.61621891      0.43927140     -2.35185367
  H       16.55585235      2.15423760     -2.78761113
  H       15.57786950      1.55140864     -1.44610230



