%Mem=256MB 
%NProc=48 

#P HF/6-31G* SCF(Conver=6) NoSymm Test 
   Pop=mk IOp(6/33=2) GFInput GFPrint 

MEP - Input generated by R.E.D.-III.x MOLECULE 

0 1 
  O        5.76554906      3.44570695      0.00000000
  H        5.12862752      3.28910888      0.70993750
  O        0.00000000      0.00000000      0.00000000
  H       -0.08356103     -0.74287996     -0.61426270
  C        8.81939941      0.36972221      0.37503236
  C        7.89593167      1.54401315     -0.05396298
  H        7.71717348      2.12616663      0.86132036
  C        6.51038923      1.12993238     -0.56435183
  H        6.62684190      0.54570628     -1.48874572
  C        5.77723992      0.26691436      0.49340839
  H        5.55472351      0.94474950      1.33435026
  C       10.10285252      1.17344190      0.78630976
  H        9.86716983      1.64911991      1.75161664
  C        8.07957313     -0.37176692      1.50769286
  H        7.97909032      0.30918923      2.36511549
  H        8.64285463     -1.23977669      1.86449451
  C        4.38822215     -0.25327476     -0.01829185
  C        8.78042308      2.42125469     -0.94982023
  H        8.42549273      3.45489626     -0.98723325
  H        8.79015521      2.04551489     -1.98102642
  C        6.68247323     -0.85084189      1.06259576
  H        6.81080006     -1.64079341      0.31536763
  H        6.18834525     -1.32452183      1.91877692
  C       10.18598765      2.30159750     -0.29949025
  H       10.94617741      2.05334886     -1.05004225
  H       10.49232988      3.25188477      0.14742691
  C        5.65746712      2.35768408     -0.94822865
  H        6.06105937      2.78547236     -1.87315921
  C       11.44873553      0.42579234      0.97414678
  H       11.73436601      0.00000000      0.00000000
  C        9.14191949     -0.59090129     -0.79260388
  H        8.24118597     -1.00706324     -1.25112663
  H        9.70608296     -0.09253961     -1.58670867
  H        9.74631073     -1.43558319     -0.44573003
  C        3.62964036      0.86840907     -0.73988908
  C        3.54073939     -0.70602683      1.21087349
  H        3.59159634      0.08386666      1.97319188
  H        3.99695620     -1.59607555      1.65725775
  C        4.21193992      2.00741870     -1.14958967
  H        3.60449335      2.76984938     -1.63643773
  C        4.55053425     -1.44283576     -1.00357173
  H        4.91816764     -2.33687082     -0.49105933
  H        3.60018091     -1.70911034     -1.47277491
  H        5.24947353     -1.19764482     -1.80893972
  C        2.15148215      0.64013580     -0.99780222
  H        1.69770036      1.54151965     -1.42124814
  H        2.02282958     -0.15861007     -1.74569492
  C        2.06125347     -0.99127225      0.91043190
  H        1.96499284     -1.85540546      0.23657205
  H        1.53500020     -1.25469670      1.83489822
  C       12.56662452      1.41908225      1.38401886
  H       12.47881913      2.32843783      0.78206407
  H       12.39779489      1.72801078      2.42749984
  C        1.38727689      0.22029652      0.26707521
  H        1.39303364      1.05463784      0.97931732
  C       11.36393813     -0.72608576      1.99182049
  H       10.96802556     -0.37049963      2.95135884
  H       12.34948030     -1.16146079      2.18263927
  H       10.72016507     -1.53806574      1.64598220
  C       13.99889610      0.87888265      1.23923149
  H       14.10533982     -0.05528582      1.80370306
  H       14.17727412      0.61334937      0.18827701
  C       15.09502512      1.84275407      1.73139718
  H       16.06540690      1.32746347      1.67353517
  H       14.92496398      2.04685077      2.79851859
  C       15.22526644      3.19218917      0.99300543
  H       14.26467933      3.72153039      1.06755854
  C       15.55247670      3.01590318     -0.49829584
  H       16.49605075      2.46973606     -0.62776241
  H       15.66140548      3.98799708     -0.99254358
  H       14.77192809      2.46238386     -1.03025314
  C       16.28630730      4.06908351      1.67723287
  H       17.27507955      3.59461710      1.63073071
  H       16.36541549      5.04928493      1.19332405
  H       16.04660537      4.23500956      2.73385879



