%Mem=256MB 
%NProc=48 

#P HF/6-31G* SCF(Conver=6) NoSymm Test 
   Pop=mk IOp(6/33=2) GFInput GFPrint 

MEP - Input generated by R.E.D.-III.x MOLECULE 

0 1 
  O        6.84115314      0.78943456      0.00000000
  H        7.39882577      0.00000000     -0.00000000
  O       10.39654144     -2.03074785      4.95216707
  H       10.07806339     -1.91904409      5.85895655
  C        2.77546261     -0.57355076      0.73193948
  C        4.08537526      0.23070211      0.50338564
  H        4.58988621     -0.26513783     -0.33801661
  C        5.08157156      0.19365460      1.66837334
  H        4.63015891      0.68328271      2.54351906
  C        5.43895048     -1.27024315      2.03114058
  H        6.02157502     -1.65799539      1.17888463
  C        2.03893573     -0.26437729     -0.61805856
  H        2.57393314     -0.84417953     -1.38493881
  C        3.19924341     -2.03791763      0.96460059
  H        3.67211765     -2.41682216      0.04709204
  H        2.33854032     -2.68508732      1.16166274
  C        6.38823855     -1.36165723      3.27700108
  C        3.61709497      1.59448560     -0.02539857
  H        4.38948728      2.08343340     -0.62552931
  H        3.37257718      2.27448261      0.80079157
  C        4.18423539     -2.16846348      2.14480740
  H        3.64593561     -1.93861901      3.07012655
  H        4.48974121     -3.21789847      2.22794508
  C        2.34866113      1.25065902     -0.85534228
  H        1.49836682      1.86543040     -0.53695845
  H        2.49592331      1.45898318     -1.91951299
  C        6.35885804      0.99870304      1.34839788
  H        6.11041663      2.06609259      1.36676274
  C        0.53204357     -0.59243177     -0.75933049
  H        0.00000000      0.00000000      0.00000000
  C        1.95008020     -0.04642562      1.92778354
  H        2.51843174     -0.05241402      2.86139539
  H        1.60695122      0.98001943      1.76703987
  H        1.06114007     -0.66591215      2.08841521
  C        7.50283597     -0.31169254      3.17812087
  C        7.04727719     -2.77560189      3.30034307
  H        7.42953979     -2.99355997      2.29335615
  H        6.28043679     -3.52909118      3.50957553
  C        7.46432997      0.72652390      2.32665451
  H        8.30363922      1.42075327      2.29641252
  C        5.61537330     -1.12776347      4.60367177
  H        4.92976915     -1.95362590      4.81569443
  H        6.29461677     -1.04701478      5.45589767
  H        5.03478838     -0.20114448      4.56608474
  C        8.68684801     -0.47942404      4.11278936
  H        9.45884882      0.26123755      3.88225534
  H        8.37080399     -0.29240698      5.15152820
  C        8.20270625     -2.93740910      4.29992774
  H        7.83513421     -2.84014880      5.33215040
  H        8.63471766     -3.94091071      4.21434926
  C       -0.05241166     -0.09879750     -2.11522040
  H       -1.12329996     -0.34170176     -2.12420858
  H       -0.00706703      0.99676434     -2.11451314
  C        9.29020535     -1.89119478      4.05723599
  H        9.72775716     -2.05189263      3.06418099
  C        0.19114288     -2.06935467     -0.48118152
  H        0.83538361     -2.75579453     -1.03961845
  H       -0.84639203     -2.28518794     -0.75987193
  H        0.29690574     -2.31342733      0.57944261
  C        0.59234285     -0.57264767     -3.43761499
  H        0.25252921      0.11083366     -4.22644191
  H        1.67859924     -0.42746766     -3.38590401
  C        0.32678931     -2.01832961     -3.90466154
  H        0.76448809     -2.72654299     -3.19163266
  H        0.87399320     -2.17009034     -4.84744978
  C       -1.14587536     -2.41419016     -4.14395263
  H       -1.69822999     -2.27848354     -3.20332431
  C       -1.23904295     -3.90185378     -4.52006139
  H       -0.70816700     -4.10143118     -5.45985690
  H       -2.28092148     -4.21437650     -4.65472442
  H       -0.79505845     -4.53843209     -3.74606785
  C       -1.82326615     -1.54470028     -5.21533903
  H       -1.29157192     -1.62197332     -6.17280936
  H       -2.85729830     -1.86666600     -5.38362610
  H       -1.85002661     -0.48716906     -4.93370185



