%Mem=256MB 
%NProc=48 

#P HF/6-31G* SCF(Conver=6) NoSymm Test 
   Pop=mk IOp(6/33=2) GFInput GFPrint 

MEP - Input generated by R.E.D.-III.x MOLECULE 

0 1 
  O        6.84192568      0.78748277      0.00000000
  H        7.40232114     -0.00000000      0.00000000
  O       10.39908336     -2.03907687      4.94367279
  H       10.08005741     -1.93166028      5.85078399
  C        2.77591953     -0.57805041      0.72758413
  C        4.08620126      0.22587691      0.50033187
  H        4.59150603     -0.27029074     -0.34045528
  C        5.08157301      0.18838656      1.66630863
  H        4.62936838      0.67629356      2.54201275
  C        5.43869703     -1.27612944      2.02692813
  H        6.01945039     -1.66328796      1.17313395
  C        2.04022856     -0.27007842     -0.62263573
  H        2.57085193     -0.85485107     -1.38836395
  C        3.19909580     -2.04264950      0.96067887
  H        3.67240830     -2.42190168      0.04355074
  H        2.33798849     -2.68956916      1.15720070
  C        6.38975724     -1.37057587      3.27130722
  C        3.61825452      1.58918058     -0.02976482
  H        4.39261287      2.08062796     -0.62530030
  H        3.36753849      2.26758004      0.79590812
  C        4.18308473     -2.17285679      2.14155188
  H        3.64430834     -1.94046284      3.06593061
  H        4.48729536     -3.22250743      2.22692959
  C        2.35508930      1.24296870     -0.86667272
  H        1.50373381      1.86209958     -0.55972480
  H        2.51192967      1.44291043     -1.93126676
  C        6.35846171      0.99460989      1.34835761
  H        6.10925604      2.06178832      1.36808221
  C        0.53120862     -0.59087196     -0.76058052
  H        0.00000000      0.00000000      0.00000000
  C        1.94888938     -0.05107197      1.92231820
  H        2.51676407     -0.05352954      2.85629427
  H        1.60276246      0.97407382      1.75929032
  H        1.06156815     -0.67283321      2.08357736
  C        7.50271464     -0.31857378      3.17569509
  C        7.05172069     -2.78330099      3.28763520
  H        7.43457168     -2.99520664      2.27957625
  H        6.28649679     -3.53954519      3.49283921
  C        7.46348296      0.72168078      2.32676370
  H        8.30207322      1.41686520      2.29862349
  C        5.61771378     -1.14379834      4.59967554
  H        4.93521785     -1.97276521      4.80951437
  H        6.29735979     -1.06352696      5.45166177
  H        5.03374429     -0.21914489      4.56556273
  C        8.68675200     -0.48745226      4.10997942
  H        9.45736985      0.25555848      3.88240364
  H        8.37024544     -0.30503339      5.14937480
  C        8.20738734     -2.94747107      4.28653743
  H        7.83948475     -2.85581152      5.31914840
  H        8.64149804     -3.94966211      4.19634553
  C       -0.04590434     -0.12349486     -2.12381236
  H       -1.13084833     -0.30093049     -2.10232381
  H        0.07505299      0.96303628     -2.21664533
  C        9.29283816     -1.89791839      4.04887412
  H        9.73116451     -2.05355653      3.05535136
  C        0.18514124     -2.07100096     -0.51138621
  H        0.80188117     -2.74347566     -1.11811770
  H       -0.86415970     -2.26642410     -0.76273604
  H        0.32514105     -2.35289896      0.53528028
  C        0.53143988     -0.79194665     -3.38292183
  H        1.60924331     -0.59759136     -3.44241167
  H        0.41628068     -1.88003687     -3.30839661
  C       -0.15316988     -0.28818780     -4.66431172
  H       -0.04695117      0.80534053     -4.71261806
  H       -1.23259598     -0.48319700     -4.58510809
  C        0.35073163     -0.88374133     -5.99967918
  H       -0.25378360     -0.41030306     -6.78757529
  C        0.11382039     -2.39987316     -6.09961495
  H        0.73325872     -2.95392030     -5.38488511
  H        0.36305832     -2.76819135     -7.10136985
  H       -0.93416506     -2.65414252     -5.90149737
  C        1.82019673     -0.53431631     -6.28817475
  H        2.49906746     -1.02172269     -5.57892618
  H        2.10867271     -0.86212798     -7.29347192
  H        1.99291569      0.54664862     -6.22722169



