%Mem=256MB 
%NProc=48 

#P HF/6-31G* SCF(Conver=6) NoSymm Test 
   Pop=mk IOp(6/33=2) GFInput GFPrint 

MEP - Input generated by R.E.D.-III.x MOLECULE 

0 1 
  O        0.00000000      0.00000000      0.00000000
  H        0.96651949     -0.00000000     -0.00000000
  O        4.36466436     -1.38574774     -4.91454208
  H        4.08871375     -1.21584977     -5.82621860
  C       -1.24259043      4.07353757     -0.86055769
  C       -1.14468250      2.55397894     -0.57443128
  H       -0.44325015      2.45630929      0.26587750
  C       -0.53827398      1.73136747     -1.71650771
  H       -1.19753148      1.78969446     -2.59454614
  C        0.86381347      2.28377467     -2.09036871
  H        1.51413816      2.05145464     -1.23063700
  C       -1.90243461      4.54305509      0.47385318
  H       -1.11455661      4.39563000      1.22665264
  C        0.18967950      4.58575560     -1.09173209
  H        0.76550364      4.45277510     -0.16454719
  H        0.20000377      5.66095033     -1.31607377
  C        1.49019699      1.53136000     -3.31692811
  C       -2.53009491      2.17834203     -0.01688097
  H       -2.47882006      1.29763818      0.62923831
  H       -3.23097840      1.94139437     -0.82762541
  C        0.88329547      3.82681848     -2.24228468
  H        0.40604800      4.11376915     -3.18447000
  H        1.92081626      4.17259882     -2.31455257
  C       -2.98828000      3.45664113      0.75328124
  H       -3.97406035      3.77896474      0.40622054
  H       -3.08563215      3.26668816      1.82712651
  C       -0.44939144      0.23380595     -1.35569320
  H       -1.46250228     -0.18470973     -1.36338714
  C       -2.32885131      6.03362962      0.61251342
  H       -1.62665333      6.62019713      0.00000000
  C       -2.12936522      4.39880459     -2.08288532
  H       -1.74311502      3.95498301     -3.00407457
  H       -3.15318820      4.03516064     -1.95826480
  H       -2.17838616      5.48123832     -2.24423563
  C        1.28341235      0.01699656     -3.17823458
  C        3.02397814      1.81583702     -3.34790227
  H        3.42325495      1.65910650     -2.33610317
  H        3.19162067      2.87155553     -3.58621936
  C        0.41571821     -0.53308772     -2.31283547
  H        0.33908226     -1.61844072     -2.25433633
  C        0.85017659      1.98871305     -4.65622829
  H        1.12628494      3.01937456     -4.89820287
  H        1.17608508      1.36430503     -5.49177559
  H       -0.24139494      1.92674780     -4.61504442
  C        2.10842932     -0.87326962     -4.08945188
  H        1.95382054     -1.92550562     -3.83136998
  H        1.77313529     -0.75199982     -5.13189094
  C        3.82756917      0.94301001     -4.32402777
  H        3.53515991      1.15815450     -5.36245653
  H        4.89522494      1.17691153     -4.24420094
  C       -3.75660369      6.37240044      0.12043150
  H       -3.99929298      5.79327978     -0.77623120
  H       -4.48341307      6.06234062      0.88485898
  C        3.60796369     -0.54298183     -4.04191173
  H        3.99265538     -0.77937437     -3.04213012
  C       -2.14454918      6.49389003      2.07334135
  H       -2.76696653      5.89582326      2.75059990
  H       -2.42218713      7.54398989      2.21027057
  H       -1.10288993      6.38385732      2.39480415
  C       -3.97272221      7.86059244     -0.20258107
  H       -3.73707600      8.47050497      0.67768539
  H       -3.25886760      8.15780729     -0.98285274
  C       -5.40776883      8.15730478     -0.66658190
  H       -6.10418558      7.83804160      0.12227898
  H       -5.63212286      7.52783763     -1.54004056
  C       -5.72921031      9.62546375     -1.03179183
  H       -6.78711229      9.63587334     -1.33351421
  C       -4.91293746     10.12971559     -2.23353272
  H       -3.84629382     10.20839057     -1.99360712
  H       -5.25151340     11.12450806     -2.54502377
  H       -5.01363354      9.45811961     -3.09435940
  C       -5.59310892     10.57846809      0.16729976
  H       -4.55045947     10.67448037      0.49151882
  H       -5.94820388     11.58274329     -0.09077449
  H       -6.17912785     10.22727459      1.02479879



