%Mem=256MB 
%NProc=48 

#P HF/6-31G* SCF(Conver=6) NoSymm Test 
   Pop=mk IOp(6/33=2) GFInput GFPrint 

MEP - Input generated by R.E.D.-III.x MOLECULE 

0 1 
  O        0.00000000      0.00000000      0.00000000
  H        0.96652568     -0.00000000     -0.00000000
  O        4.36540867     -1.25935522     -4.94368426
  H        4.09291766     -1.06170296     -5.85079377
  C       -1.24491360      4.10454345     -0.72758307
  C       -1.14021226      2.57086341     -0.50033108
  H       -0.44297993      2.44684301      0.34045697
  C       -0.53254253      1.78161620     -1.66630754
  H       -1.19225786      1.86716195     -2.54201142
  C        0.86774192      2.33978196     -2.02692686
  H        1.51990528      2.09108484     -1.17313360
  C       -1.92239426      4.52538787      0.62263626
  H       -1.13829060      4.43211337      1.38836507
  C        0.19373779      4.60893906     -0.96067533
  H        0.77716233      4.44319526     -0.04354633
  H        0.22154505      5.68561936     -1.15719441
  C        1.49612050      1.61966225     -3.27130608
  C       -2.52228956      2.16167690      0.02976202
  H       -2.47372651      1.24581840      0.62529432
  H       -3.22038354      1.97261502     -0.79591492
  C        0.87034653      3.88272532     -2.14154792
  H        0.36861791      4.18695421     -3.06592721
  H        1.90193877      4.24346033     -2.22692479
  C       -2.97259925      3.39158062      0.86667240
  H       -3.97066174      3.72625294      0.55972685
  H       -3.04456489      3.14786487      1.93126571
  C       -0.44907131      0.27381215     -1.34835704
  H       -1.46305163     -0.14190194     -1.36808704
  C       -2.53596155      5.94086800      0.76058107
  H       -3.32537466      6.03108420      0.00000000
  C       -2.15378567      4.47282729     -1.92231802
  H       -1.82252785      4.01157050     -2.85629379
  H       -3.18971614      4.16045693     -1.75929084
  H       -2.16167034      5.55627734     -2.08357886
  C        1.28429568      0.10291824     -3.17569612
  C        3.03095700      1.89942916     -3.28763597
  H        3.42558732      1.71036104     -2.27957779
  H        3.20343065      2.96137295     -3.49283856
  C        0.41399751     -0.46826348     -2.32676254
  H        0.33381362     -1.55458018     -2.29862323
  C        0.86371690      2.11720406     -4.59967317
  H        1.14340868      3.15391082     -4.80951218
  H        1.19237476      1.51691678     -5.45166086
  H       -0.22823799      2.05687822     -4.56555889
  C        2.10839890     -0.76386440     -4.10998303
  H        1.94983529     -1.82253150     -3.88240870
  H        1.77625814     -0.61175511     -5.14937804
  C        3.83477391      1.05303162     -4.28654099
  H        3.54678061      1.29964034     -5.31915084
  H        4.90301557      1.28041190     -4.19635053
  C       -3.25137369      6.14008605      2.12381234
  H       -3.73585820      7.12693038      2.10232645
  H       -4.06650280      5.41156299      2.21664258
  C        3.60899534     -0.43988179     -4.04888140
  H        3.98994894     -0.70677377     -3.05536007
  C       -1.53066817      7.08101377      0.51138991
  H       -0.62517827      6.96842448      1.11812270
  H       -1.97983551      8.04924508      0.76273953
  H       -1.21981662      7.13039435     -0.53527625
  C       -2.37200381      6.05725488      3.38292339
  H       -1.90545136      5.06641555      3.44241408
  H       -1.55223860      6.78195281      3.30839876
  C       -3.17938260      6.32297186      4.66431295
  H       -4.00876537      5.60240863      4.71261569
  H       -3.64633954      7.31551421      4.58510933
  C       -2.40199010      6.25770598      5.99968158
  H       -3.13822519      6.47575080      6.78757706
  C       -1.30405660      7.32977095      6.09961901
  H       -0.49349180      7.14630391      5.38489237
  H       -0.85946146      7.34024962      7.10137563
  H       -1.70449722      8.33105704      5.90149810
  C       -1.83471029      4.85784281      6.28817805
  H       -1.04398573      4.58731426      5.57893174
  H       -1.40036629      4.81286536      7.29347687
  H       -2.61530445      4.09038558      6.22722600



