%Mem=256MB 
%NProc=48 

#P HF/6-31G* SCF(Conver=6) NoSymm Test 
   Pop=mk IOp(6/33=2) GFInput GFPrint 

MEP - Input generated by R.E.D.-III.x MOLECULE 

0 1 
  O        6.84732596      0.78345347     -0.00000000
  H        7.41336829      0.00000000      0.00000000
  O       10.45599653     -1.98522805      4.94230226
  H       10.14203414     -1.87186238      5.85045841
  C        2.79735369     -0.61463275      0.75591861
  C        4.10013495      0.19933317      0.51925565
  H        4.60535604     -0.29400599     -0.32334086
  C        5.10213968      0.17660714      1.67992682
  H        4.65064437      0.66595204      2.55518619
  C        5.47381635     -1.28188978      2.04844807
  H        6.05336060     -1.67061408      1.19452820
  C        2.04969722     -0.32344325     -0.59263054
  H        2.56319154     -0.92369479     -1.36052046
  C        3.23607176     -2.07370118      0.99822960
  H        3.70984002     -2.45394947      0.08175454
  H        2.38321220     -2.72878032      1.20203419
  C        6.43171484     -1.35932853      3.28870527
  C        3.61541889      1.55532795     -0.01061838
  H        4.38669796      2.06453625     -0.59510592
  H        3.34128858      2.22452030      0.81503015
  C        4.22579133     -2.18685524      2.17600874
  H        3.68940691     -1.95085115      3.10090597
  H        4.53792077     -3.23357312      2.26841114
  C        2.37216974      1.18653895     -0.86571188
  H        1.51277947      1.81414446     -0.60037464
  H        2.56361644      1.35886929     -1.92885666
  C        6.37010055      0.99256773      1.35023708
  H        6.11169905      2.05762667      1.36649083
  C        0.53671432     -0.64206270     -0.71521959
  H        0.00000000      0.00000000      0.00000000
  C        1.97194922     -0.08272741      1.95006067
  H        2.54600483     -0.06792687      2.88011221
  H        1.61430946      0.93672799      1.77670643
  H        1.09185772     -0.71040165      2.12487985
  C        7.53621201     -0.29994523      3.17863013
  C        7.10370752     -2.76711398      3.31370266
  H        7.48184823     -2.98546400      2.30524822
  H        6.34504952     -3.52675459      3.53041351
  C        7.48346220      0.73425663      2.32311024
  H        8.31637900      1.43576253      2.28500541
  C        5.66495487     -1.12630175      4.61910172
  H        4.98979390     -1.95835117      4.84040103
  H        6.34870272     -1.03295024      5.46645030
  H        5.07381854     -0.20637645      4.57976208
  C        8.72735865     -0.45295537      4.10671263
  H        9.49107266      0.29379757      3.86834707
  H        8.41599222     -0.26444789      5.14661927
  C        8.26668752     -2.91440374      4.30682497
  H        7.90453715     -2.81640956      5.34090604
  H        8.70726635     -3.91428551      4.22256555
  C        0.02055757     -0.27904850     -2.13158771
  H        0.44460755      0.68317674     -2.43373192
  H        0.40798608     -1.02020159     -2.84809597
  C        9.34316872     -1.85941306      4.05338058
  H        9.77642108     -2.02034843      3.05847376
  C        0.19867388     -2.10765212     -0.38742414
  H        0.80110836     -2.79268320     -0.99710209
  H       -0.85439134     -2.32721174     -0.58768347
  H        0.37894043     -2.34968992      0.66247159
  C       -1.50921626     -0.19669053     -2.26269862
  H       -1.96447242     -1.13730348     -1.93010542
  H       -1.88661535      0.57491744     -1.57784607
  C       -2.01115500      0.07845425     -3.69277794
  H       -3.10998258      0.02287856     -3.69435777
  H       -1.66687624     -0.73725165     -4.34502053
  C       -1.59921177      1.42079528     -4.33432575
  H       -0.50127951      1.47137044     -4.35611559
  C       -2.11180197      2.63258922     -3.54001504
  H       -3.20729855      2.61634019     -3.46919636
  H       -1.82490368      3.57060115     -4.02882570
  H       -1.71281218      2.65770017     -2.52080214
  C       -2.09008159      1.48398720     -5.78965122
  H       -3.18609570      1.44326119     -5.83488241
  H       -1.77202425      2.41252006     -6.27738774
  H       -1.70168925      0.64541859     -6.37905846



