%Mem=256MB 
%NProc=48 

#P HF/6-31G* SCF(Conver=6) NoSymm Test 
   Pop=chelpg IOp(6/33=2) GFInput GFPrint 

MEP - Input generated by R.E.D.-III.x MOLECULE 

0 1 
  C        1.75938189     -1.24787922     -0.07079328
  H        1.87285379     -1.12251068     -1.15460669
  C        3.15105241     -1.31120875      0.57363346
  H        3.72952214     -2.12708307      0.12967481
  H        3.01445869     -1.56393236      1.63787080
  C        3.91293478     -0.00442243      0.45621692
  C        3.18717486      1.27132356      0.89487319
  C        1.74693747      1.25391304      0.29432095
  H        1.82176422      1.44993837     -0.78440839
  H        1.16319757      2.07717979      0.71962173
  C        0.97746690     -0.06126846      0.49184274
  H        0.78147329     -0.23589083      1.56016309
  H        0.00000000      0.00000000      0.00000000
  C        5.17233214      0.00000000      0.00000000
  H        5.63826218     -0.93363645     -0.30718308
  C        6.05830184      1.20694942     -0.09548310
  H        6.31390917      1.40665562     -1.14774039
  C        5.48123924      2.47369795      0.55751986
  H        5.69736509      2.40335043      1.63170782
  C        3.94282060      2.52763571      0.34121148
  H        3.79311315      2.50451353     -0.75056379
  C        3.35691769      3.86636966      0.84463261
  H        3.38886823      3.89478657      1.93919992
  H        2.29781764      3.92777622      0.57194477
  C        4.07201155      5.11590687      0.29574634
  H        3.91676562      5.17709440     -0.79117415
  H        3.59823571      6.00305973      0.72698180
  C        5.58806400      5.08332996      0.57609258
  C        6.12148326      3.74893600     -0.02209313
  H        5.82183369      3.77236744     -1.08403238
  C        7.64922017      3.91139386      0.00000000
  H        8.14524675      3.27035832     -0.73539220
  H        8.05504738      3.63418699      0.97807355
  C        7.86337102      5.41967416     -0.29827484
  H        8.54948424      5.86649869      0.43121617
  H        8.32043278      5.56784448     -1.28127250
  C        6.46078869      6.11308138     -0.22401025
  H        6.04077710      6.13979844     -1.24223755
  C        5.86940826      5.20246234      2.09158731
  H        5.43632614      4.37694003      2.66204829
  H        6.94152419      5.21596532      2.30908981
  H        5.44432510      6.12865800      2.49164722
  C        6.54944970      7.58453976      0.25931251
  H        7.02981845      7.58316397      1.24974749
  C        5.17567882      8.26431663      0.39802633
  H        4.61610599      8.21274122     -0.54452196
  H        5.28171832      9.32061741      0.66205742
  H        4.56230776      7.80348136      1.17535702
  C        3.10557330      1.28579824      2.44484237
  H        2.46338456      2.09639775      2.80327964
  H        2.69093721      0.35145398      2.83208271
  H        4.09651707      1.40651580      2.89252926
  O        7.30300316      0.95872403      0.60606221
  O        8.03589944     -0.06351890     -0.13429872
  H        8.80119471      0.45498648     -0.43261872
  O        1.05232513     -2.48377704      0.06570197
  H        0.92166640     -2.66318297      1.00746621
  C        7.46078704      8.40425710     -0.68826406
  H        8.38156171      7.84253394     -0.88212175
  H        6.95675886      8.50566851     -1.66188793
  C        7.86420881      9.79747800     -0.17724087
  H        6.97531897     10.42513948     -0.04816273
  H        8.31598063      9.69053776      0.81839207
  C        8.85067485     10.49863798     -1.12558158
  H        8.39217576     10.56324300     -2.12308136
  H        9.73935028      9.86157671     -1.24236174
  C        9.31940946     11.91418064     -0.71515370
  H       10.01495739     12.24060662     -1.50250882
  C        8.16882128     12.93384291     -0.67993063
  H        7.45857698     12.71533582      0.12585741
  H        8.55123228     13.94701811     -0.51130685
  H        7.61196512     12.94016664     -1.62437423
  C       10.10223785     11.91859965      0.60835652
  H        9.45975439     11.66432351      1.45925401
  H       10.52844546     12.90882631      0.80586008
  H       10.92832990     11.19804117      0.58588855



