%Mem=256MB 
%NProc=48 

#P HF/6-31G* SCF(Conver=6) NoSymm Test 
   Pop=chelpg IOp(6/33=2) GFInput GFPrint 

MEP - Input generated by R.E.D.-III.x MOLECULE 

0 1 
  C        1.75981929     -1.24695748     -0.07615388
  H        1.87293071     -1.11809930     -1.15959840
  C        3.15150692     -1.31207021      0.56788950
  H        3.72997752     -2.12673438      0.12170952
  H        3.01488463     -1.56771963      1.63143279
  C        3.91358698     -0.00507374      0.45400492
  C        3.18782439      1.27020350      0.89441801
  C        1.74685556      1.25366483      0.29552128
  H        1.82023507      1.45236506     -0.78281447
  H        1.16324930      2.07552798      0.72365970
  C        0.97804991     -0.06226455      0.49055374
  H        0.78339368     -0.23984067      1.55863590
  H        0.00000000      0.00000000      0.00000000
  C        5.17380162      0.00000000     -0.00000000
  H        5.64008738     -0.93316541     -0.30808265
  C        6.05996640      1.20703678     -0.09254994
  H        6.31845616      1.40670143     -1.14410015
  C        5.48132995      2.47401580      0.55874615
  H        5.69664401      2.40516771      1.63321203
  C        3.94313171      2.52665626      0.34101409
  H        3.79453003      2.50268970     -0.75088198
  C        3.35625622      3.86552718      0.84261335
  H        3.38721602      3.89515294      1.93720692
  H        2.29739480      3.92625972      0.56899764
  C        4.07099416      5.11483544      0.29254762
  H        3.91617563      5.17469345     -0.79450100
  H        3.59594931      6.00195858      0.72248101
  C        5.58703676      5.08402946      0.57366138
  C        6.12126973      3.74873043     -0.02210281
  H        5.82192660      3.77054429     -1.08413322
  C        7.64900956      3.91123072      0.00000000
  H        8.14489743      3.27077603     -0.73602673
  H        8.05501731      3.63326458      0.97778151
  C        7.86333945      5.41974120     -0.29686758
  H        8.54495853      5.86568924      0.43722847
  H        8.32561530      5.57028022     -1.27707925
  C        6.46010820      6.11188687     -0.22839683
  H        6.04238916      6.13331202     -1.24774781
  C        5.86692728      5.20684176      2.08901729
  H        5.43286626      4.38298217      2.66116149
  H        6.93881281      5.22044575      2.30776887
  H        5.44141862      6.13425095      2.48609910
  C        6.54719481      7.58649287      0.24695163
  H        7.01729012      7.58558324      1.24079818
  C        5.17442544      8.26898280      0.37312932
  H        4.62820476      8.23338845     -0.57804025
  H        5.27864441      9.32109733      0.65433445
  H        4.54893189      7.79855034      1.13467381
  C        3.10768116      1.28277518      2.44446719
  H        2.46759438      2.09424974      2.80470724
  H        2.69126718      0.34873994      2.83063626
  H        4.09921866      1.40035235      2.89158227
  O        7.30279567      0.95898229      0.61236082
  O        8.03787967     -0.06308594     -0.12611236
  H        8.80428353      0.45539020     -0.42161793
  O        1.05300336     -2.48339055      0.05665394
  H        0.92247182     -2.66566548      0.99788610
  C        7.46479534      8.38945541     -0.71081975
  H        8.42093350      7.86581113     -0.81437504
  H        7.00816815      8.37716596     -1.71188782
  C        7.75234151      9.85690559     -0.33439963
  H        8.38892792     10.28480913     -1.11934861
  H        6.82395862     10.43991525     -0.36943511
  C        8.41152198     10.08700617      1.03886623
  H        7.72675924      9.75217429      1.82988897
  H        8.52890240     11.17079460      1.18686457
  C        9.78381130      9.41891876      1.26876161
  H        9.66621847      8.33402323      1.13332574
  C       10.84816644      9.90397753      0.27155931
  H       10.98744151     10.99018160      0.34903854
  H       11.81613413      9.43057450      0.47157979
  H       10.57859321      9.67600957     -0.76472903
  C       10.25290336      9.65358141      2.71373098
  H       10.39439516     10.72425706      2.90963779
  H       11.20724564      9.15150801      2.90955611
  H        9.52112280      9.27733283      3.43792953



