%Mem=256MB 
%NProc=48 

#P HF/6-31G* SCF(Conver=6) NoSymm Test 
   Pop=chelpg IOp(6/33=2) GFInput GFPrint 

MEP - Input generated by R.E.D.-III.x MOLECULE 

0 1 
  C       -1.00519924      1.97687592      1.69438104
  H       -0.99251667      0.99599611      2.18514992
  C        0.32471642      2.69208588      1.97180536
  H        0.47891345      2.78221613      3.05172016
  H        0.23846421      3.71779140      1.57777124
  C        1.51123520      2.00171570      1.32663903
  C        1.40040230      1.65260003     -0.16175601
  C       -0.00182612      1.01657685     -0.41727975
  H        0.00000000      0.00000000      0.00000000
  H       -0.16087614      0.90856594     -1.49513802
  C       -1.18687806      1.78313246      0.18977553
  H       -1.29329993      2.76848091     -0.28786238
  H       -2.11975102      1.24018704      0.00000000
  C        2.60597479      1.72816140      2.04899603
  H        2.62357731      1.97222152      3.11173025
  C        3.86572533      1.10670513      1.52200638
  H        4.01011500      0.11930746      1.99015144
  C        3.91458043      0.96833951     -0.00715490
  H        4.21449151      1.94543231     -0.40073879
  C        2.50179834      0.60291763     -0.54502951
  H        2.21312551     -0.32742094     -0.02803510
  C        2.53454931      0.27584164     -2.05649904
  H        2.70818660      1.19240266     -2.63050396
  H        1.55442217     -0.09803363     -2.37205596
  C        3.60168816     -0.76419580     -2.44899498
  H        3.34898216     -1.73403772     -1.99680654
  H        3.57036815     -0.90842500     -3.53500033
  C        5.00697270     -0.34486781     -1.97971388
  C        4.92427502     -0.10835352     -0.44197103
  H        4.54083630     -1.05636758     -0.02593182
  C        6.39633242     -0.00000000     -0.00000000
  H        6.53298615     -0.24575874      1.05621648
  H        6.76196082      1.02436418     -0.12434243
  C        7.14022151     -0.98668692     -0.94397432
  H        7.99326442     -0.49444801     -1.42192108
  H        7.54971900     -1.84432722     -0.39856870
  C        6.09794136     -1.46902721     -2.00036084
  H        5.59382581     -2.34321331     -1.56034396
  C        5.46405150      0.92515191     -2.73439884
  H        4.86098196      1.79853173     -2.47352244
  H        6.50505244      1.18057601     -2.52173384
  H        5.37292467      0.78335358     -3.81531264
  C        6.74520591     -2.02730772     -3.30184990
  H        7.44978856     -2.78779973     -2.92630341
  C        7.58805834     -1.04400692     -4.13908274
  H        6.96302977     -0.38248637     -4.74662837
  H        8.24265185     -1.59197329     -4.82418533
  H        8.23280402     -0.41572004     -3.51798481
  C        1.53885811      2.96098034     -0.98492017
  H        1.32243533      2.78923208     -2.04380662
  H        0.84399586      3.72943835     -0.63517053
  H        2.54766173      3.37535697     -0.90078743
  O        5.02699314      1.78933289      2.05902031
  O        5.06761334      3.14895873      1.53314811
  H        4.74112805      3.65243198      2.29682659
  O       -2.10873720      2.65614178      2.29915944
  H       -2.19912954      3.52757334      1.88850621
  C        5.73035359     -2.78478562     -4.18823373
  H        5.06418466     -3.37269426     -3.54146503
  H        5.08813197     -2.06295993     -4.71125511
  C        6.35715128     -3.73225503     -5.22439242
  H        6.97436030     -3.15857928     -5.92567642
  H        7.03633140     -4.42290815     -4.70605268
  C        5.29691684     -4.52733498     -6.00342720
  H        4.61074400     -3.81674050     -6.48691709
  H        4.68691066     -5.09549776     -5.28616242
  C        5.81715624     -5.50725014     -7.08095812
  H        4.92325716     -5.97820295     -7.51629434
  C        6.55324772     -4.79302513     -8.22673516
  H        7.49449487     -4.34602995     -7.88659353
  H        6.79809556     -5.49631848     -9.03089320
  H        5.93972205     -3.99322483     -8.65807899
  C        6.67861323     -6.63542600     -6.48961344
  H        7.62488857     -6.25402225     -6.08898387
  H        6.92487879     -7.38001129     -7.25524370
  H        6.15556829     -7.15288696     -5.67671074



