%Mem=256MB 
%NProc=48 

#P HF/6-31G* SCF(Conver=6) NoSymm Test 
   Pop=chelpg IOp(6/33=2) GFInput GFPrint 

MEP - Input generated by R.E.D.-III.x MOLECULE 

0 1 
  C        7.51732851      2.21481957      0.06849769
  H        7.35555790      2.18396348      1.15294768
  C        6.82176813      1.00704768     -0.57555050
  H        7.20468558      0.08070284     -0.13579109
  H        7.10313473      0.99145480     -1.64110419
  C        5.31087709      1.06219900     -0.45384616
  C        4.61613864      2.36042971     -0.87911978
  C        5.40977896      3.56456261     -0.28256228
  H        5.21153578      3.60631640      0.79749619
  H        5.02426352      4.49848998     -0.70449700
  C        6.93118823      3.51069139     -0.48974681
  H        7.17691329      3.58328370     -1.55968190
  H        7.40570029      4.36861486      0.00000000
  C        4.63199997     -0.00000000     -0.00000000
  H        5.17607783     -0.89066711      0.31619959
  C        3.13888560     -0.09973836      0.10878010
  H        2.85508191     -0.19287205      1.16975740
  C        2.37459706      1.06856526     -0.53234110
  H        2.31692106      0.85591473     -1.60540048
  C        3.15587198      2.39290659     -0.30641542
  H        3.27098797      2.49397664      0.78564586
  C        2.33953713      3.61670246     -0.78062782
  H        2.29135643      3.62784413     -1.87496750
  H        2.85685564      4.53809638     -0.49151740
  C        0.90423799      3.67095814     -0.22215713
  H        0.94191343      3.81178630      0.86785174
  H        0.40748999      4.55578502     -0.63199897
  C        0.11838274      2.37968123     -0.52567723
  C        0.95675293      1.20174765      0.05135176
  H        1.09537355      1.44629515      1.11946791
  C        0.00000000      0.00000000      0.00000000
  H        0.27445785     -0.78478012      0.70949914
  H        0.01733336     -0.46559251     -0.99067737
  C       -1.38698553      0.62354353      0.31126743
  H       -2.13362383      0.29918244     -0.42364903
  H       -1.75637776      0.29778136      1.28842205
  C       -1.21994244      2.18061818      0.26856627
  H       -1.01898504      2.52943578      1.29432506
  C       -0.13183472      2.23382994     -2.04446130
  H        0.79740650      2.15747067     -2.61459942
  H       -0.72459571      1.34449160     -2.27710014
  H       -0.67792829      3.10057623     -2.43110025
  C       -2.50804844      2.90518019     -0.20281030
  H       -2.76328741      2.51827713     -1.20123898
  C       -2.34503771      4.43167960     -0.31217811
  H       -2.00197301      4.85807452      0.63903635
  H       -3.29325582      4.91388543     -0.56776809
  H       -1.62633084      4.71670806     -1.08365135
  C        4.63053654      2.44081379     -2.42891281
  H        4.27767193      3.41553203     -2.77964379
  H        5.63913276      2.30138490     -2.82759050
  H        3.99867296      1.66466851     -2.87017880
  O        2.68562995     -1.39281555     -0.36645426
  O        2.93436229     -1.48915907     -1.80004960
  H        3.72835804     -2.04835987     -1.81302148
  O        8.93848836      2.14672993     -0.07493238
  H        9.15813591      2.20040959     -1.01571377
  C       -3.69024982      2.55802886      0.73628509
  H       -3.71153031      1.47585060      0.90712668
  H       -3.50618301      3.01701419      1.71999300
  C       -5.08092884      2.97662451      0.23184962
  H       -5.14312109      4.06828729      0.13447969
  H       -5.22736630      2.56769617     -0.77685598
  C       -6.21014060      2.50235376      1.15941038
  H       -5.99519863      2.85497752      2.17849112
  H       -6.20230479      1.40276215      1.21144715
  C       -7.62743711      2.97124232      0.77200512
  H       -7.60415437      4.06936748      0.69388572
  C       -8.08309680      2.41204882     -0.58559917
  H       -8.09569312      1.31436006     -0.56869761
  H       -9.09666747      2.75114751     -0.82835533
  H       -7.42632725      2.72596095     -1.40299625
  C       -8.63661472      2.60229641      1.87099697
  H       -8.69892165      1.51341411      1.99439111
  H       -9.64138193      2.96616794      1.62754857
  H       -8.34935142      3.03064409      2.83814389



