%Mem=256MB 
%NProc=48 

#P HF/6-31G* SCF(Conver=6) NoSymm Test 
   Pop=chelpg IOp(6/33=2) GFInput GFPrint 

MEP - Input generated by R.E.D.-III.x MOLECULE 

0 1 
  C        0.99723800     -0.88667305     -1.69566805
  H        1.15095185      0.08277316     -2.18524419
  C        2.21035376     -1.78553812     -1.97386217
  H        2.34976824     -1.89654419     -3.05383695
  H        1.97755808     -2.78826730     -1.57998575
  C        3.48409160     -1.27340654     -1.32878919
  C        3.42505917     -0.91218203      0.15968684
  C        2.12822426     -0.08239402      0.41636866
  H        2.27523038      0.92389206      0.00000000
  H        1.98660957      0.04621680      1.49439560
  C        0.84542244     -0.67073949     -0.19083337
  H        0.59917433     -1.63132521      0.28567375
  H        0.00000000      0.00000000      0.00000000
  C        4.60674384     -1.16022024     -2.05122236
  H        4.58891751     -1.40390712     -3.11404335
  C        5.94326290     -0.72798556     -1.52409741
  H        6.22981478      0.22735410     -1.99331813
  C        6.01140557     -0.59631926      0.00500684
  H        6.16772996     -1.60587732      0.39966891
  C        4.66560824     -0.03075340      0.54169715
  H        4.51351823      0.93040246      0.02284070
  C        4.74432007      0.29141803      2.05250915
  H        4.78466818     -0.63894628      2.62903788
  H        3.82783043      0.80280269      2.36643767
  C        5.94935697      1.16941498      2.44195703
  H        5.83626318      2.16274853      1.98513540
  H        5.93831641      1.31977345      3.52791864
  C        7.28070166      0.55192736      1.97598541
  C        7.16603320      0.32399558      0.43849430
  H        6.92493183      1.31588526      0.01806348
  C        8.60738119      0.00000000     -0.00000000
  H        8.78030716      0.22118463     -1.05633686
  H        8.81802871     -1.06682285      0.12649052
  C        9.48691299      0.86792967      0.94388052
  H       10.25255377      0.25517846      1.43057826
  H       10.02473866      1.65064568      0.39725727
  C        8.52276985      1.50872606      1.99121950
  H        8.15403457      2.43639876      1.53227904
  C        7.54667338     -0.77069148      2.73245693
  H        6.82932561     -1.54966225      2.46214827
  H        8.54315794     -1.17011467      2.52918087
  H        7.46491178     -0.62065028      3.81290605
  C        9.25245701      1.97254596      3.28528835
  H       10.08702478      2.58325163      2.90298092
  C        9.89908879      0.87217694      4.15097446
  H        9.16125527      0.34169075      4.75991999
  H       10.62107931      1.32453291      4.84037558
  H       10.43870859      0.12875905      3.55739854
  C        3.37595025     -2.22681538      0.98302590
  H        3.18923341     -2.02549372      2.04236050
  H        2.57685653     -2.88724930      0.63536742
  H        4.31431536     -2.78209819      0.89647625
  O        6.99290462     -1.57289674     -2.05997456
  O        6.83446261     -2.92364545     -1.53367056
  H        6.43731932     -3.37420196     -2.29693348
  O       -0.19251030     -1.39935573     -2.30110521
  H       -0.40756000     -2.24908735     -1.89133356
  C        8.42565004      2.91063821      4.19683913
  H        7.54665927      2.37622171      4.58099762
  H        9.04148005      3.13622071      5.07944559
  C        7.98495851      4.24545608      3.57569619
  H        8.86632059      4.74388157      3.14943783
  H        7.29880393      4.06363564      2.74103085
  C        7.30873628      5.16829976      4.60291217
  H        8.00605806      5.33678508      5.43630369
  H        6.44557321      4.64038817      5.03389296
  C        6.82758203      6.54478699      4.08753637
  H        6.38054756      7.05166240      4.95559186
  C        7.98431696      7.43008748      3.59478989
  H        8.44668389      7.02383286      2.68779068
  H        7.62883907      8.43898659      3.35603871
  H        8.76750520      7.52362111      4.35632002
  C        5.72792102      6.42790865      3.01896685
  H        6.11063406      5.98739697      2.09108558
  H        5.32190015      7.41454334      2.76808609
  H        4.89680371      5.80384410      3.36817417



