%Mem=256MB 
%NProc=48 

#P HF/6-31G* SCF(Conver=6) NoSymm Test 
   Pop=chelpg IOp(6/33=2) GFInput GFPrint 

MEP - Input generated by R.E.D.-III.x MOLECULE 

0 1 
  C       -1.01150873      1.97860530      1.68959972
  H       -0.99600109      0.99946638      2.18384213
  C        0.31641398      2.69808294      1.96341778
  H        0.47327167      2.79113369      3.04235016
  H        0.22796171      3.72312830      1.56776649
  C        1.50313963      2.00603167      1.31930225
  C        1.38922131      1.66085027     -0.16891260
  C       -0.00864196      1.01472155     -0.42183869
  H        0.00000000      0.00000000      0.00000000
  H       -0.17021667      0.90185756     -1.49909022
  C       -1.19560114      1.77813794      0.18565542
  H       -1.30753118      2.76107782     -0.29545453
  H       -2.12666342      1.23063729      0.00000000
  C        2.59708612      1.73552181      2.04343270
  H        2.62231041      1.99329851      3.09985100
  C        3.86075885      1.12412202      1.51420016
  H        4.03523192      0.14550125      1.98782710
  C        3.90839986      0.98649144     -0.01647512
  H        4.21134033      1.96471494     -0.41179973
  C        2.49648024      0.62253910     -0.55883603
  H        2.21417172     -0.31417153     -0.05099785
  C        2.53803417      0.31215599     -2.07371908
  H        2.71938315      1.23413909     -2.63635809
  H        1.55751054     -0.05240795     -2.39824622
  C        3.60094394     -0.73019481     -2.47057317
  H        3.33864102     -1.70073894     -2.02661775
  H        3.57435044     -0.86509706     -3.55825734
  C        5.00704270     -0.32377181     -1.99194303
  C        4.91549100     -0.09344873     -0.45341963
  H        4.52210696     -1.03926708     -0.04416897
  C        6.38506621      0.00000000     -0.00000000
  H        6.50861615     -0.26845248      1.05379049
  H        6.75886838      1.02327982     -0.10625507
  C        7.13262163     -0.97902562     -0.94891878
  H        7.98292005     -0.48046216     -1.42519070
  H        7.54560593     -1.83838578     -0.40905684
  C        6.09089452     -1.45741924     -2.00836891
  H        5.58208406     -2.32244603     -1.56049327
  C        5.47457884      0.94958770     -2.73463643
  H        4.87619422      1.82393838     -2.46640530
  H        6.51698433      1.19628164     -2.51826079
  H        5.38409860      0.82045527     -3.81685619
  C        6.75507869     -2.01495586     -3.30022768
  H        7.49327789     -2.73638742     -2.91773668
  C        7.55992880     -1.01640915     -4.15665021
  H        6.91179670     -0.37860862     -4.76483061
  H        8.21006095     -1.56636540     -4.84652314
  H        8.20162454     -0.36496483     -3.55634445
  C        1.51420128      2.97095243     -0.99190241
  H        1.28824109      2.80111837     -2.04926851
  H        0.82071554      3.73610460     -0.63339451
  H        2.52151952      3.39122061     -0.91712942
  O        4.99191456      1.96753565      1.84876699
  O        5.16898562      1.92204157      3.29681210
  H        6.02962274      1.47496973      3.35127117
  O       -2.11841229      2.65602793      2.29114731
  H       -2.18837059      3.53960103      1.90308540
  C        5.80127218     -2.80936284     -4.22603662
  H        5.04180374     -2.12754274     -4.62937444
  H        6.38882249     -3.14227424     -5.09390155
  C        5.09823914     -4.04409128     -3.63120179
  H        4.44273569     -3.74311323     -2.80647414
  H        4.43408433     -4.45545333     -4.40475460
  C        6.05290007     -5.15566466     -3.16706719
  H        6.63930272     -4.81405193     -2.30186193
  H        6.78012743     -5.34814744     -3.96949747
  C        5.37169161     -6.48964810     -2.79829582
  H        4.77024381     -6.80530210     -3.66495172
  C        6.42357413     -7.57921821     -2.53690333
  H        7.05535244     -7.31487033     -1.67912088
  H        5.95157308     -8.54333731     -2.31595373
  H        7.08020593     -7.71755846     -3.40351511
  C        4.42618619     -6.35516717     -1.59354743
  H        4.97458082     -6.01362671     -0.70577315
  H        3.96613356     -7.31896451     -1.34754342
  H        3.61681324     -5.64262856     -1.78160621



