%Mem=256MB 
%NProc=48 

#P HF/6-31G* SCF(Conver=6) NoSymm Test 
   Pop=chelpg IOp(6/33=2) GFInput GFPrint 

MEP - Input generated by R.E.D.-III.x MOLECULE 

0 1 
  C        1.75924690     -1.24856129     -0.06259711
  H        1.87311213     -1.12986152     -1.14711273
  C        3.15063557     -1.30801426      0.58277567
  H        3.72931997     -2.12653198      0.14401495
  H        3.01357966     -1.55421348      1.64846012
  C        3.91253980     -0.00189708      0.45748636
  C        3.18674059      1.27622467      0.88937909
  C        1.74688280      1.25544133      0.28783668
  H        1.82239373      1.44528980     -0.79194943
  H        1.16261961      2.08082975      0.70817702
  C        0.97726216     -0.05851817      0.49258113
  H        0.78088285     -0.22664594      1.56184917
  H        0.00000000      0.00000000      0.00000000
  C        5.17149256      0.00000000      0.00000000
  H        5.63712610     -0.93528355     -0.30254720
  C        6.05694991      1.20662613     -0.10384700
  H        6.30792221      1.40259316     -1.15792089
  C        5.48220766      2.47542302      0.54730925
  H        5.69821601      2.40432037      1.62120892
  C        3.94269340      2.53012339      0.33042825
  H        3.79404147      2.50147792     -0.76140807
  C        3.35176557      3.87153303      0.82475561
  H        3.38510744      3.91074899      1.91876355
  H        2.29231126      3.92572053      0.55222747
  C        4.06407601      5.11562442      0.26029480
  H        3.90515226      5.16108826     -0.82622783
  H        3.59683363      6.01250654      0.68367371
  C        5.57723753      5.08640783      0.54466920
  C        6.12402132      3.74776935     -0.03632924
  H        5.83406624      3.75671831     -1.10059210
  C        7.65464684      3.92050903     -0.00000000
  H        8.15767985      3.29085900     -0.74047577
  H        8.05400174      3.63113232      0.97718809
  C        7.86694881      5.43631181     -0.27394694
  H        8.50411189      5.88184097      0.49672474
  H        8.37359718      5.61347172     -1.22915824
  C        6.45008386      6.09118349     -0.28522612
  H        6.07784547      5.98482756     -1.31375857
  C        5.83514744      5.19820156      2.06539686
  H        5.47991911      4.31817573      2.60749333
  H        6.89688414      5.31090718      2.29841647
  H        5.31227204      6.06319084      2.48307655
  C        6.49187482      7.62659289     -0.03691532
  H        7.24686442      7.98164725     -0.75498776
  C        6.98612658      8.09553583      1.34661152
  H        6.21606382      7.99170546      2.11665745
  H        7.25368727      9.15725079      1.29948454
  H        7.87306560      7.55250533      1.68569437
  C        3.10361180      1.29863416      2.43918143
  H        2.46283307      2.11246392      2.79274676
  H        2.68652666      0.36718663      2.83078545
  H        4.09429282      1.41941171      2.88736697
  O        7.30471108      0.96150089      0.59314688
  O        8.03418187     -0.06404798     -0.14602858
  H        8.79817755      0.45312379     -0.44996809
  O        1.05200562     -2.48351399      0.08127098
  H        0.92102961     -2.65702437      1.02410027
  C        5.17727269      8.37187844     -0.37503098
  H        4.39075083      8.04464641      0.31681793
  H        5.33852887      9.43714916     -0.15496362
  C        4.64960252      8.26337326     -1.81809338
  H        4.40611392      7.22115052     -2.05247196
  H        3.69713197      8.81023009     -1.86760859
  C        5.59648404      8.83618555     -2.88472136
  H        6.50733965      8.22366853     -2.95039066
  H        5.92488944      9.83427325     -2.55949152
  C        4.98973344      8.96062071     -4.29749123
  H        4.06709640      9.55532798     -4.21069548
  C        5.94745704      9.71643311     -5.23208153
  H        6.88928346      9.16621402     -5.35470415
  H        5.50950070      9.84940988     -6.22789316
  H        6.19130453     10.70935330     -4.83715471
  C        4.61525524      7.59679643     -4.90017998
  H        5.50030425      6.95217014     -4.98188016
  H        4.19814411      7.71491368     -5.90672770
  H        3.87121263      7.06863623     -4.29552360



