%Mem=256MB 
%NProc=48 

#P HF/6-31G* SCF(Conver=6) NoSymm Test 
   Pop=chelpg IOp(6/33=2) GFInput GFPrint 

MEP - Input generated by R.E.D.-III.x MOLECULE 

0 1 
  C       -1.01061776      1.98382306      1.68352729
  H       -0.99133132      1.00671544      2.18164348
  C        0.31624910      2.70763363      1.95095945
  H        0.47557629      2.80565460      3.02910037
  H        0.22432354      3.73080910      1.55117459
  C        1.50297632      2.01576450      1.30673063
  C        1.38582761      1.66245663     -0.17932720
  C       -0.01140136      1.01285909     -0.42623586
  H        0.00000000      0.00000000      0.00000000
  H       -0.17495049      0.89481844     -1.50266075
  C       -1.19826289      1.77674783      0.18088020
  H       -1.31329810      2.75749259     -0.30400483
  H       -2.12880874      1.22678008      0.00000000
  C        2.60039929      1.75319707      2.02850927
  H        2.62840493      2.01713863      3.08335385
  C        3.86468801      1.14379063      1.49834457
  H        4.04651743      0.17035849      1.97980170
  C        3.90616384      0.99236889     -0.03119832
  H        4.20917195      1.96606211     -0.43824842
  C        2.49369721      0.62362851     -0.56544376
  H        2.21412347     -0.31039703     -0.05129066
  C        2.53588286      0.30592723     -2.07749901
  H        2.70934311      1.22750867     -2.64368133
  H        1.55782557     -0.06689857     -2.40028911
  C        3.60512437     -0.72922303     -2.47681311
  H        3.35403960     -1.70325011     -2.03247521
  H        3.56666478     -0.86459707     -3.56204166
  C        5.01305118     -0.31848284     -2.00041198
  C        4.91217947     -0.09046745     -0.46384398
  H        4.51629397     -1.03834479     -0.06035285
  C        6.37427798     -0.00000000     -0.00000000
  H        6.48952212     -0.25060284      1.05912497
  H        6.75832410      1.01773609     -0.12224673
  C        7.11670444     -1.00268833     -0.92364122
  H        8.00298766     -0.53593692     -1.36975141
  H        7.47604978     -1.86981997     -0.36134428
  C        6.11024335     -1.43949741     -2.04122527
  H        5.61177667     -2.36359237     -1.70707363
  C        5.50189487      0.94086015     -2.75195312
  H        4.85662279      1.80594021     -2.57955583
  H        6.51369868      1.22944991     -2.45213409
  H        5.52040950      0.76273357     -3.83208031
  C        6.81876007     -1.77523686     -3.38016896
  H        7.37217019     -0.87890777     -3.69398827
  C        5.84494459     -2.15190678     -4.50968438
  H        5.21236864     -2.99986905     -4.21787002
  H        6.38358766     -2.43954216     -5.41760405
  H        5.18756436     -1.32317886     -4.78103694
  C        1.50736621      2.96870970     -1.00886147
  H        1.27820706      2.79415047     -2.06477346
  H        0.81449249      3.73490496     -0.65150268
  H        2.51457642      3.39004974     -0.93895291
  O        4.99291281      1.99616105      1.82020421
  O        5.17821232      1.96302996      3.26754455
  H        6.04105645      1.52008639      3.32084758
  O       -2.11754187      2.66098465      2.28534716
  H       -2.19070343      3.54281414      1.89392677
  C        7.84835866     -2.91257302     -3.15509390
  H        8.50384433     -2.64384864     -2.31860917
  H        7.30013083     -3.81146251     -2.83529490
  C        8.74710750     -3.28596180     -4.35002661
  H        9.38165382     -4.12764920     -4.03779513
  H        8.13751542     -3.66631248     -5.17762555
  C        9.65412755     -2.14671225     -4.84107732
  H       10.15797814     -1.70240656     -3.97012897
  H        9.04622483     -1.34347015     -5.28210800
  C       10.73040870     -2.56301196     -5.86470027
  H       11.31363437     -3.38285551     -5.41728306
  C       10.12442221     -3.08005424     -7.17963632
  H        9.50787958     -2.30529105     -7.65408399
  H       10.91102412     -3.35799786     -7.89034263
  H        9.49385611     -3.96133766     -7.02517475
  C       11.69464897     -1.39805923     -6.13869443
  H       11.16376583     -0.54842529     -6.58712463
  H       12.49026380     -1.69445943     -6.83174838
  H       12.16802151     -1.04476592     -5.21539454



