%Mem=256MB 
%NProc=48 

#P HF/6-31G* SCF(Conver=6) NoSymm Test 
   Pop=chelpg IOp(6/33=2) GFInput GFPrint 

MEP - Input generated by R.E.D.-III.x MOLECULE 

0 1 
  C        1.75863277     -1.24824699     -0.07050355
  H        1.87080968     -1.12776098     -1.15496106
  C        3.15130702     -1.30864570      0.57284905
  H        3.72798666     -2.12820411      0.13251604
  H        3.01411389     -1.55507324      1.63835253
  C        3.91467594     -0.00357820      0.45168837
  C        3.19108832      1.27921685      0.87597409
  C        1.74864527      1.25435061      0.28079363
  H        1.81840633      1.44425138     -0.79933116
  H        1.16712370      2.08023985      0.70338290
  C        0.97913994     -0.05911287      0.48871719
  H        0.78728648     -0.22788741      1.55884191
  H        0.00000000      0.00000000      0.00000000
  C        5.17607791      0.00000000      0.00000000
  H        5.63684616     -0.93682940     -0.31517016
  C        6.06095105      1.20692025     -0.10743531
  H        6.29479463      1.39538395     -1.16794454
  C        5.48270417      2.47925870      0.53059210
  H        5.69095581      2.41575638      1.60417879
  C        3.94640407      2.52858484      0.30163620
  H        3.80129354      2.48278345     -0.79057656
  C        3.34903327      3.87449044      0.77133335
  H        3.36199200      3.92323641      1.86561208
  H        2.29480880      3.93095724      0.47876270
  C        4.07404051      5.11447924      0.21274745
  H        3.93775994      5.15656742     -0.87766720
  H        3.59185133      6.00851362      0.61993071
  C        5.58460172      5.08670171      0.52017302
  C        6.13112305      3.74676403     -0.05375076
  H        5.85224878      3.75924564     -1.12235051
  C        7.65842303      3.91033997      0.00000000
  H        8.17467054      3.25865530     -0.70953826
  H        8.04101758      3.64510895      0.99086293
  C        7.87629735      5.41585059     -0.30907200
  H        8.54496042      5.87177086      0.43094288
  H        8.35549676      5.55549460     -1.28287559
  C        6.47188716      6.10851189     -0.27362945
  H        6.07324175      6.12249645     -1.30088856
  C        5.83779518      5.22231108      2.03931222
  H        5.40187135      4.39839661      2.60989492
  H        6.90567856      5.24556333      2.27490491
  H        5.39832392      6.14907960      2.42276448
  C        6.54946458      7.58624258      0.19329158
  H        7.00443393      7.59140067      1.19372713
  C        5.17518974      8.27002173      0.29294802
  H        4.64241554      8.22433309     -0.66546717
  H        5.27617108      9.32541343      0.56365855
  H        4.53871224      7.80833358      1.05084122
  C        3.11683404      1.31135164      2.42585623
  H        2.48511811      2.13326036      2.77661646
  H        2.69222899      0.38627993      2.82539693
  H        4.11136994      1.42681696      2.86630318
  O        7.39416153      0.89708359      0.37209600
  O        7.33773902      0.63734332      1.80596227
  H        7.38750869     -0.33250150      1.82027943
  O        1.05447167     -2.48460072      0.07283366
  H        0.89183097     -2.64149892      1.01364642
  C        7.48001132      8.38445784     -0.75606846
  H        8.43691453      7.85774134     -0.84747691
  H        7.03077980      8.37457376     -1.76057480
  C        7.78746329      9.84617081     -0.37305110
  H        8.40468908     10.26877733     -1.17594434
  H        6.86460626     10.43790675     -0.36536542
  C        8.52206432     10.00093493      0.96888220
  H        9.39879776      9.33655510      0.96729241
  H        7.87464694      9.64441752      1.78118557
  C        8.99663307     11.42868742      1.33032035
  H        9.47583012     11.34557399      2.31710921
  C       10.06024778     11.96723998      0.35894576
  H        9.64637453     12.14196756     -0.64080457
  H       10.46432143     12.92175623      0.71520818
  H       10.89803755     11.26744340      0.25684215
  C        7.83050204     12.42043398      1.47717557
  H        7.33542990     12.60670753      0.51712398
  H        8.18518614     13.38636057      1.85457311
  H        7.07393587     12.04632473      2.17706974



