%Mem=256MB 
%NProc=48 

#P HF/6-31G* SCF(Conver=6) NoSymm Test 
   Pop=chelpg IOp(6/33=2) GFInput GFPrint 

MEP - Input generated by R.E.D.-III.x MOLECULE 

0 1 
  C       -1.01190366      1.98412998      1.68217854
  H       -0.99158915      1.00752520      2.18126177
  C        0.31443708      2.70946747      1.94810579
  H        0.47428678      2.80878390      3.02605583
  H        0.22115094      3.73212060      1.54737380
  C        1.50168493      2.01839712      1.30394630
  C        1.38416160      1.66352696     -0.18165209
  C       -0.01263957      1.01241134     -0.42722450
  H        0.00000000      0.00000000      0.00000000
  H       -0.17667381      0.89314534     -1.50346903
  C       -1.20011384      1.77542380      0.17985738
  H       -1.31683275      2.75550576     -0.30592542
  H       -2.13001317      1.22402558      0.00000000
  C        2.59987918      1.75820452      2.02543568
  H        2.62805347      2.02340495      3.07995300
  C        3.86463601      1.14985633      1.49534894
  H        4.04868387      0.17800768      1.97914972
  C        3.90503617      0.99482399     -0.03383890
  H        4.20790273      1.96749426     -0.44343636
  C        2.49261834      0.62517123     -0.56739226
  H        2.21355690     -0.30882370     -0.05293411
  C        2.53568957      0.30699711     -2.07926564
  H        2.71122331      1.22814980     -2.64553122
  H        1.55736064     -0.06431025     -2.40296487
  C        3.60354298     -0.73023111     -2.47687643
  H        3.35053101     -1.70325821     -2.03142295
  H        3.56587652     -0.86696432     -3.56194989
  C        5.01184831     -0.32127353     -2.00002306
  C        4.91042910     -0.08968028     -0.46407939
  H        4.51349080     -1.03630845     -0.05865407
  C        6.37241261     -0.00000000     -0.00000000
  H        6.48687640     -0.24573778      1.06033875
  H        6.75863853      1.01628427     -0.12721968
  C        7.11263662     -1.00895032     -0.91861216
  H        8.00302777     -0.54846530     -1.36323337
  H        7.46534394     -1.87598559     -0.35197186
  C        6.10698874     -1.44448832     -2.03774596
  H        5.60601734     -2.36717626     -1.70362223
  C        5.50399409      0.93565760     -2.75348465
  H        4.85934158      1.80186294     -2.58455182
  H        6.51540089      1.22368898     -2.45180496
  H        5.52500122      0.75537510     -3.83318053
  C        6.81615534     -1.78292467     -3.37514620
  H        7.37790697     -0.89087059     -3.69228346
  C        5.84140764     -2.15633967     -4.50584917
  H        5.20079578     -2.99682194     -4.20996415
  H        6.38044475     -2.45299311     -5.41034118
  H        5.19128658     -1.32375894     -4.78299258
  C        1.50415297      2.96899691     -1.01261573
  H        1.27611355      2.79246415     -2.06844265
  H        0.80965324      3.73443456     -0.65675355
  H        2.51064605      3.39204831     -0.94242675
  O        4.99188467      2.00491365      1.81368486
  O        5.17828058      1.97652082      3.26100193
  H        6.04241758      1.53621654      3.31500297
  O       -2.11911522      2.66091755      2.28386502
  H       -2.19311734      3.54237988      1.89177464
  C        7.84876310     -2.91779659     -3.15922418
  H        8.47228129     -2.67890085     -2.28967858
  H        7.30396330     -3.83707096     -2.89933251
  C        8.78902405     -3.18114900     -4.34790977
  H        8.22825919     -3.57271825     -5.20429705
  H        9.21109533     -2.22171947     -4.67939413
  C        9.95982959     -4.12826582     -4.02579534
  H       10.55690067     -3.68331800     -3.21658578
  H       10.62416899     -4.17593521     -4.90141691
  C        9.59243394     -5.57210304     -3.62165400
  H        8.94353979     -5.52677997     -2.73520755
  C        8.82731745     -6.31484299     -4.72853699
  H        9.42497160     -6.36599225     -5.64803944
  H        8.59895999     -7.34259580     -4.42407930
  H        7.87877459     -5.82661475     -4.97467741
  C       10.85780278     -6.35001784     -3.22615097
  H       11.54715198     -6.43361506     -4.07625023
  H       10.61379267     -7.36612177     -2.89568408
  H       11.39472830     -5.85185286     -2.41068600



