%Mem=256MB 
%NProc=48 

#P HF/6-31G* SCF(Conver=6) NoSymm Test 
   Pop=chelpg IOp(6/33=2) GFInput GFPrint 

MEP - Input generated by R.E.D.-III.x MOLECULE 

0 1 
  C        0.99868016     -0.89852137     -1.68859227
  H        1.15526924      0.06786877     -2.18327593
  C        2.21054030     -1.80137575     -1.95965856
  H        2.35183175     -1.91827268     -3.03877453
  H        1.97482556     -2.80156686     -1.56108002
  C        3.48395293     -1.28868038     -1.31459880
  C        3.42245078     -0.91933600      0.17172907
  C        2.12719538     -0.08516041      0.42143404
  H        2.27741307      0.91853624      0.00000000
  H        1.98392712      0.04956370      1.49853278
  C        0.84423490     -0.67379144     -0.18525300
  H        0.59464405     -1.63110994      0.29607103
  H        0.00000000      0.00000000      0.00000000
  C        4.60870729     -1.18261545     -2.03487835
  H        4.59283454     -1.43213445     -3.09637982
  C        5.94511786     -0.75090012     -1.50704549
  H        6.23601879      0.19989728     -1.98274821
  C        6.00975789     -0.60758563      0.02109884
  H        6.16714309     -1.61342396      0.42554181
  C        4.66403151     -0.03847733      0.55145179
  H        4.51417338      0.92063340      0.02827017
  C        4.74392796      0.28828989      2.06034573
  H        4.77644147     -0.64124763      2.63897429
  H        3.83080003      0.80663751      2.37280225
  C        5.95382885      1.15832000      2.45340176
  H        5.85050449      2.15383468      1.99770026
  H        5.93455002      1.30941198      3.53746101
  C        7.28506940      0.53727298      1.98722037
  C        7.16307244      0.31598513      0.45149647
  H        6.91735980      1.31065680      0.03920544
  C        8.59914435      0.00000000     -0.00000000
  H        8.76288557      0.22453839     -1.05714356
  H        8.81769131     -1.06572184      0.12196622
  C        9.48042007      0.87013053      0.93743588
  H       10.26139038      0.26104970      1.40787722
  H        9.99984510      1.65952433      0.38448312
  C        8.53787827      1.47934726      2.02601025
  H        8.18455072      2.45601418      1.66305274
  C        7.57255831     -0.77468910      2.75217234
  H        6.80702039     -1.53500264      2.57831827
  H        8.53187737     -1.21447848      2.46446438
  H        7.60663832     -0.59150536      3.83145879
  C        9.26668048      1.72473174      3.37077839
  H        9.62782137      0.74963912      3.72904056
  C        8.36302615      2.30934489      4.47285666
  H        7.82411740      3.20015559      4.13116081
  H        8.96156041      2.59838158      5.34498375
  H        7.61814434      1.58733738      4.81704692
  C        3.36830234     -2.22974980      1.00147745
  H        3.17819148     -2.02303384      2.05916976
  H        2.56922317     -2.89049318      0.65427940
  H        4.30604430     -2.78694714      0.92079938
  O        6.99341255     -1.60347087     -2.03372405
  O        6.83052002     -2.94905721     -1.49584350
  H        6.43035921     -3.40455185     -2.25459665
  O       -0.19094422     -1.41215457     -2.29349421
  H       -0.40910612     -2.25866214     -1.87873164
  C       10.53844637      2.59786128      3.19660687
  H       11.04597191      2.64142124      4.17103336
  H       11.23782998      2.09086852      2.52025820
  C       10.32444790      4.03595942      2.69512122
  H        9.84747827      4.01497269      1.70762950
  H        9.63077314      4.56029165      3.36344544
  C       11.64695478      4.81588951      2.61051520
  H       12.33672720      4.26724268      1.95279533
  H       12.11662543      4.81861290      3.60489929
  C       11.55999543      6.27705038      2.11125280
  H       12.59103521      6.66067863      2.12179179
  C       11.05605347      6.37987767      0.66205099
  H       10.00695544      6.07410621      0.57580206
  H       11.12617517      7.41100940      0.29714639
  H       11.64554949      5.74660904     -0.01141039
  C       10.73514096      7.17556423      3.04773832
  H        9.67512260      6.89648551      3.04588498
  H       10.79694807      8.22455619      2.73612989
  H       11.09572566      7.11244782      4.08123696



