%Mem=256MB 
%NProc=48 

#P HF/6-31G* SCF(Conver=6) NoSymm Test 
   Pop=chelpg IOp(6/33=2) GFInput GFPrint 

MEP - Input generated by R.E.D.-III.x MOLECULE 

0 1 
  C        1.75920915     -1.24827570     -0.06882850
  H        1.87288200     -1.12416679     -1.15276284
  C        3.15077565     -1.31089706      0.57593217
  H        3.72933769     -2.12724150      0.13296695
  H        3.01397340     -1.56240305      1.64040477
  C        3.91260087     -0.00413924      0.45714055
  C        3.18684919      1.27174452      0.89542458
  C        1.74697803      1.25399208      0.29393043
  H        1.82264530      1.44889515     -0.78493289
  H        1.16297437      2.07773965      0.71794496
  C        0.97723911     -0.06096942      0.49232140
  H        0.78077650     -0.23448819      1.56072849
  H        0.00000000      0.00000000      0.00000000
  C        5.17164974      0.00000000     -0.00000000
  H        5.63743809     -0.93376129     -0.30698757
  C        6.05719058      1.20714470     -0.09725523
  H        6.30920845      1.40801650     -1.15017381
  C        5.48171444      2.47320177      0.55842256
  H        5.69850188      2.40119074      1.63236377
  C        3.94287342      2.52811703      0.34243267
  H        3.79356610      2.50530370     -0.74941394
  C        3.35572212      3.86672940      0.84576361
  H        3.38536031      3.89429790      1.94036164
  H        2.29711193      3.92754952      0.57114814
  C        4.07156991      5.11690090      0.29906224
  H        3.91609268      5.18035277     -0.78768187
  H        3.60015127      6.00452925      0.73276789
  C        5.58674568      5.08169134      0.58009311
  C        6.12168301      3.74901438     -0.01972903
  H        5.82038357      3.77363214     -1.08105299
  C        7.65072936      3.91209524      0.00000000
  H        8.14269432      3.28497250     -0.75007218
  H        8.06093171      3.61542878      0.97045515
  C        7.86629856      5.42695248     -0.26752703
  H        8.52620545      5.86212205      0.49219003
  H        8.35351061      5.60077500     -1.23214864
  C        6.46029237      6.10880644     -0.22064587
  H        6.05030349      6.11381108     -1.24153035
  C        5.86440698      5.20166792      2.09581171
  H        5.42686030      4.37855534      2.66626955
  H        6.93576361      5.21212381      2.31724203
  H        5.43977433      6.12973644      2.49271771
  C        6.53268338      7.58178052      0.25326145
  H        6.95630141      7.57784113      1.26821145
  C        5.16120628      8.27841951      0.33572201
  H        4.59003339      8.17439584     -0.59343277
  H        5.28800338      9.35025169      0.52876675
  H        4.54643334      7.87518770      1.14436912
  C        3.10425807      1.28582334      2.44536444
  H        2.46113032      2.09567434      2.80376570
  H        2.69023106      0.35097591      2.83198336
  H        4.09481994      1.40709702      2.89376544
  O        7.30417687      0.95885308      0.59998048
  O        8.03481860     -0.06291269     -0.14320789
  H        8.79810304      0.45630636     -0.44546168
  O        1.05205641     -2.48395336      0.06899747
  H        0.92089399     -2.66205900      1.01094183
  C        7.51824232      8.42458593     -0.60219344
  H        7.57362328      9.42557151     -0.14997439
  H        8.52451482      8.00090025     -0.50931090
  C        7.16573864      8.58500159     -2.09092582
  H        7.21097252      7.61227650     -2.59635075
  H        6.12602097      8.92243516     -2.18521831
  C        8.05238516      9.59958858     -2.83832653
  H        7.94713586     10.57842563     -2.34835004
  H        7.65770725      9.72753374     -3.85730048
  C        9.55634582      9.26862071     -2.94545195
  H        9.95601735      9.14228652     -1.92912613
  C        9.81624934      7.96696417     -3.72030592
  H        9.41831653      8.03582517     -4.74119561
  H       10.89060064      7.76409772     -3.79610244
  H        9.35129653      7.10011283     -3.23973229
  C       10.31147589     10.44004109     -3.59393331
  H        9.95580990     10.61596502     -4.61739107
  H       11.38777826     10.23995238     -3.64649787
  H       10.17001198     11.36842324     -3.02874468



