%Mem=256MB 
%NProc=48 

#P HF/6-31G* SCF(Conver=6) NoSymm Test 
   Pop=chelpg IOp(6/33=2) GFInput GFPrint 

MEP - Input generated by R.E.D.-III.x MOLECULE 

0 1 
  C        0.99833582     -0.90863787     -1.68384729
  H        1.15644289      0.05587817     -2.18179872
  C        2.20857739     -1.81395813     -1.95171638
  H        2.35216959     -1.93326452     -3.02992076
  H        1.97190204     -2.81376700     -1.55234790
  C        3.48186852     -1.29862568     -1.30743069
  C        3.41650522     -0.93310148      0.17877061
  C        2.12626309     -0.09083788      0.42598945
  H        2.28213082      0.91012175      0.00000000
  H        1.98134419      0.04910381      1.50247261
  C        0.84239368     -0.67724940     -0.18113745
  H        0.58838929     -1.63159866      0.30354193
  H        0.00000000      0.00000000      0.00000000
  C        4.60518653     -1.19420118     -2.02957147
  H        4.59496469     -1.45857906     -3.08462081
  C        5.94350543     -0.77150047     -1.49946500
  H        6.26200698      0.16656656     -1.98014170
  C        6.00643848     -0.62910980      0.03018537
  H        6.16683859     -1.63658522      0.43614597
  C        4.66126385     -0.06313171      0.56553997
  H        4.51744483      0.90196345      0.05287284
  C        4.74909921      0.24272324      2.07804166
  H        4.79048393     -0.69519962      2.64239435
  H        3.83408632      0.74999921      2.40245626
  C        5.95466800      1.11488089      2.47794605
  H        5.84430201      2.11513810      2.03461070
  H        5.93674145      1.25316471      3.56331418
  C        7.28965398      0.50851918      2.00023461
  C        7.15706571      0.29841630      0.46359978
  H        6.90094046      1.29343553      0.06062280
  C        8.59124968      0.00000000      0.00000000
  H        8.74103861      0.22984984     -1.05948240
  H        8.82637223     -1.06183692      0.12404437
  C        9.46860346      0.88864928      0.92211211
  H       10.28291314      0.30325998      1.36571074
  H        9.94300691      1.69724160      0.35796309
  C        8.53550611      1.46156151      2.04223126
  H        8.17371238      2.44817965      1.71117188
  C        7.59438704     -0.80881004      2.74980307
  H        6.83295144     -1.57322284      2.57555655
  H        8.55509317     -1.23770533      2.44977841
  H        7.63758930     -0.63727059      3.83021494
  C        9.28436583      1.68892135      3.38169684
  H        9.71143584      0.72376329      3.69442455
  C        8.37071518      2.19348016      4.51273506
  H        7.84901837      3.11174434      4.21473780
  H        8.94603636      2.41837711      5.41559442
  H        7.61479273      1.45706112      4.79399021
  C        3.35044125     -2.24360042      1.00792733
  H        3.14771531     -2.03825563      2.06371657
  H        2.55588499     -2.90349460      0.65002036
  H        4.28768801     -2.80373444      0.93875932
  O        6.93871422     -1.77560113     -1.82258166
  O        7.12584535     -1.76828059     -3.27005540
  H        8.04328939     -1.45374489     -3.32375113
  O       -0.19386745     -1.42106444     -2.28557314
  H       -0.39187876     -2.28358309     -1.89438115
  C       10.46897316      2.66531764      3.17258112
  H       11.03304565      2.36617827      2.28191982
  H       10.06638183      3.66661727      2.95442661
  C       11.46246048      2.76080473      4.34254841
  H       10.95679681      3.13818657      5.23844598
  H       11.81600820      1.75010480      4.58812653
  C       12.65998228      3.66698272      4.01258833
  H       12.28117070      4.66172965      3.73621653
  H       13.16117554      3.27480692      3.11579842
  C       13.72178346      3.84416921      5.12304202
  H       14.48967871      4.50956638      4.70131648
  C       13.16158538      4.53985976      6.37483983
  H       12.42973814      3.91069642      6.89449336
  H       13.96333989      4.76370419      7.08777707
  H       12.66866748      5.48527283      6.11924534
  C       14.42078668      2.52472677      5.49044543
  H       13.73298552      1.82488965      5.97893845
  H       15.25108758      2.70320695      6.18323304
  H       14.82824451      2.02801471      4.60196772



