%Mem=256MB 
%NProc=48 

#P HF/6-31G* SCF(Conver=6) NoSymm Test 
   Pop=chelpg IOp(6/33=2) GFInput GFPrint 

MEP - Input generated by R.E.D.-III.x MOLECULE 

0 1 
  C        0.99816849     -0.89262766     -1.69200557
  H        1.15334101      0.07541080     -2.18391489
  C        2.21073541     -1.79343800     -1.96677758
  H        2.35149360     -1.90664362     -3.04636043
  H        1.97621104     -2.79517724     -1.57140084
  C        3.48411916     -1.28185843     -1.32072483
  C        3.42309288     -0.91752104      0.16674261
  C        2.12768056     -0.08455067      0.41939605
  H        2.27712156      0.92011078      0.00000000
  H        1.98526338      0.04771645      1.49693530
  C        0.84469293     -0.67248958     -0.18787013
  H        0.59636522     -1.63142089      0.29092408
  H        0.00000000      0.00000000      0.00000000
  C        4.60848758     -1.17235321     -2.04108979
  H        4.59231796     -1.41811072     -3.10346431
  C        5.94519027     -0.74263626     -1.51216807
  H        6.23666033      0.20922021     -1.98535183
  C        6.01003275     -0.60356761      0.01642543
  H        6.16784531     -1.61052143      0.41781471
  C        4.66427273     -0.03719796      0.54872377
  H        4.51355231      0.92379101      0.02925774
  C        4.74562905      0.28362063      2.05841872
  H        4.78273100     -0.64812628      2.63325024
  H        3.83154853      0.79787640      2.37487654
  C        5.95365076      1.15553944      2.45222279
  H        5.84893511      2.15107731      1.99688547
  H        5.93208385      1.30645591      3.53589187
  C        7.28690197      0.53747438      1.98568405
  C        7.16367388      0.31874204      0.44936264
  H        6.92047187      1.31440938      0.03777780
  C        8.59847502      0.00000000     -0.00000000
  H        8.76127939      0.20732044     -1.06070345
  H        8.81996564     -1.06296421      0.13997103
  C        9.47584813      0.89003904      0.92068482
  H       10.28396895      0.30370897      1.37454060
  H        9.95907475      1.69038535      0.35208526
  C        8.54028838      1.48004988      2.03019446
  H        8.18955467      2.46757813      1.68960481
  C        7.57713257     -0.77798540      2.74471907
  H        6.81656688     -1.54130249      2.56210478
  H        8.54023561     -1.21050312      2.45876237
  H        7.60596021     -0.60250262      3.82514996
  C        9.28055943      1.71072340      3.37380391
  H        9.69953942      0.74490334      3.69524651
  C        8.36183327      2.22758193      4.49534027
  H        7.84223524      3.14296701      4.18506946
  H        8.93251609      2.46174688      5.39892691
  H        7.60407458      1.49436094      4.78025799
  C        3.37003921     -2.23036113      0.99266754
  H        3.17935393     -2.02674019      2.05086975
  H        2.57181949     -2.89103063      0.64334142
  H        4.30844314     -2.78630644      0.91078988
  O        6.99263909     -1.59465467     -2.04158483
  O        6.82728807     -2.94213898     -1.50944656
  H        6.42584481     -3.39362901     -2.26991779
  O       -0.19138910     -1.40563335     -2.29753846
  H       -0.40809047     -2.25388365     -1.88558075
  C       10.47226028      2.67936087      3.16806541
  H       11.03148733      2.38286291      2.27369816
  H       10.07627106      3.68519507      2.95877390
  C       11.46842451      2.75877076      4.33632003
  H       10.96149192      3.10849615      5.24235795
  H       11.83935388      1.74733556      4.56046579
  C       12.66310489      3.67517358      4.03122586
  H       12.29935416      4.69746288      3.84481468
  H       13.12744865      3.34327201      3.09154852
  C       13.75427754      3.72766895      5.12006517
  H       14.07430469      2.69311686      5.31938302
  C       14.97973869      4.50734132      4.61723279
  H       14.71640380      5.55037905      4.39915748
  H       15.78018477      4.51728517      5.36584900
  H       15.38442619      4.06748914      3.69851041
  C       13.24344747      4.32545352      6.44120532
  H       12.88530239      5.35222376      6.28987600
  H       14.04329624      4.36085865      7.18969046
  H       12.42001278      3.74368262      6.86726050



