%Mem=256MB 
%NProc=48 

#P HF/6-31G* SCF(Conver=6) NoSymm Test 
   Pop=chelpg IOp(6/33=2) GFInput GFPrint 

MEP - Input generated by R.E.D.-III.x MOLECULE 

0 1 
  C        7.52686248      2.21448983      0.06334386
  H        7.36797719      2.18098058      1.14813542
  C        6.82971726      1.00820962     -0.58166917
  H        7.21401088      0.08090522     -0.14515898
  H        7.10805202      0.99511733     -1.64803332
  C        5.31921243      1.06300653     -0.45498129
  C        4.62281445      2.36200414     -0.87583822
  C        5.41814475      3.56508122     -0.27908227
  H        5.22239925      3.60516745      0.80148749
  H        5.03206493      4.49980195     -0.69858346
  C        6.93899157      3.51149962     -0.49033013
  H        7.18187103      3.58645104     -1.56073520
  H        7.41477624      4.36839037      0.00000000
  C        4.64238490     -0.00000000      0.00000000
  H        5.18792209     -0.89100567      0.31269360
  C        3.14990168     -0.09899154      0.11658454
  H        2.87107008     -0.18751803      1.17930666
  C        2.38358396      1.06720944     -0.52575380
  H        2.32873111      0.85304167     -1.59845534
  C        3.16364389      2.39360390     -0.29996698
  H        3.28119502      2.49271428      0.79205131
  C        2.34803443      3.62129095     -0.76917608
  H        2.29411476      3.63452231     -1.86308342
  H        2.86982242      4.54021708     -0.48052375
  C        0.91635368      3.67575218     -0.20186621
  H        0.96123042      3.81688634      0.88762692
  H        0.40890805      4.55718634     -0.61023294
  C        0.13220728      2.38621424     -0.50697546
  C        0.96648056      1.19850734      0.05939140
  H        1.11026684      1.43281294      1.12862989
  C        0.00000000      0.00000000      0.00000000
  H        0.26312039     -0.78278722      0.71601444
  H        0.02792252     -0.46936236     -0.98862857
  C       -1.39130204      0.63123832      0.28952787
  H       -2.11549457      0.33721909     -0.47696566
  H       -1.80418225      0.29025807      1.24554293
  C       -1.18612283      2.17793952      0.31339070
  H       -0.90574186      2.43661000      1.34606914
  C       -0.10130191      2.25205938     -2.02976778
  H        0.83134915      2.09262901     -2.57683780
  H       -0.76229882      1.41712186     -2.27494780
  H       -0.55676505      3.16254224     -2.43021729
  C       -2.49685192      2.98240784      0.06982898
  H       -3.18946572      2.56855733      0.82138326
  C       -3.18849995      2.79242728     -1.29537060
  H       -2.70007912      3.36968189     -2.08632196
  H       -4.22932065      3.12740167     -1.24428456
  H       -3.20689747      1.74510759     -1.60999265
  C        4.63350620      2.44538912     -2.42553526
  H        4.27891624      3.42041182     -2.77363509
  H        5.64127088      2.30762373     -2.82692923
  H        4.00123869      1.66958182     -2.86693290
  O        2.69289736     -1.39335450     -0.35104686
  O        2.93376015     -1.49537797     -1.78574206
  H        3.72480899     -2.05866857     -1.80084839
  O        8.94765658      2.14704340     -0.08413540
  H        9.16460689      2.20241594     -1.02544634
  C       -2.34145501      4.48202646      0.41095960
  H       -1.73094037      4.57753166      1.31973789
  H       -1.77924136      4.98466545     -0.38797854
  C       -3.66324384      5.23467616      0.63588439
  H       -4.26314386      5.21255957     -0.28143830
  H       -4.24609503      4.70386679      1.40105716
  C       -3.43741120      6.69253548      1.06807672
  H       -2.82604579      7.19423916      0.30383467
  H       -2.83428644      6.69670183      1.98764642
  C       -4.70253713      7.54752900      1.31383696
  H       -4.34015604      8.54136756      1.61605308
  C       -5.54336497      7.74249932      0.04114368
  H       -5.99533841      6.80162650     -0.29340910
  H       -6.36001030      8.45165811      0.21841854
  H       -4.93509057      8.13315102     -0.78320166
  C       -5.56486054      7.01152983      2.46868790
  H       -6.01865882      6.04533069      2.21981799
  H       -6.38102971      7.70539382      2.70034350
  H       -4.97165126      6.87739163      3.38097205



