%Mem=256MB 
%NProc=48 

#P HF/6-31G* SCF(Conver=6) NoSymm Test 
   Pop=chelpg IOp(6/33=2) GFInput GFPrint 

MEP - Input generated by R.E.D.-III.x MOLECULE 

0 1 
  C        1.75936653     -1.24827784     -0.06410164
  H        1.87372794     -1.12745459     -1.14833619
  C        3.15051214     -1.30870950      0.58169093
  H        3.72926128     -2.12665710      0.14195474
  H        3.01314707     -1.55629542      1.64701093
  C        3.91232808     -0.00242584      0.45811949
  C        3.18659476      1.27497202      0.89229170
  C        1.74637076      1.25512388      0.29151809
  H        1.82124887      1.44773870     -0.78782524
  H        1.16209710      2.07932192      0.71416056
  C        0.97694170     -0.05947587      0.49310670
  H        0.77969992     -0.23011928      1.56184483
  H        0.00000000      0.00000000      0.00000000
  C        5.17104749     -0.00000000     -0.00000000
  H        5.63643214     -0.93494606     -0.30398145
  C        6.05641179      1.20670044     -0.10283509
  H        6.30686396      1.40397929     -1.15678940
  C        5.48197789      2.47458820      0.55027366
  H        5.69880113      2.40226805      1.62393745
  C        3.94221372      2.52972085      0.33480716
  H        3.79257906      2.50275208     -0.75694710
  C        3.35215250      3.87037395      0.83207937
  H        3.38668552      3.90739989      1.92611784
  H        2.29240774      3.92540419      0.56085122
  C        4.06413224      5.11582675      0.26996734
  H        3.90401565      5.16473327     -0.81629741
  H        3.59741653      6.01112005      0.69718693
  C        5.57780154      5.08547585      0.55226698
  C        6.12291045      3.74774822     -0.03245614
  H        5.83022757      3.75888448     -1.09598838
  C        7.65341945      3.92022511      0.00000000
  H        8.15473303      3.28999567     -0.74118348
  H        8.05506429      3.63162524      0.97648691
  C        7.86503866      5.43580151     -0.27546465
  H        8.50826338      5.88046718      0.49055763
  H        8.36494016      5.61241365     -1.23432477
  C        6.44839051      6.09144006     -0.27792405
  H        6.07217011      5.98961901     -1.30511351
  C        5.83837673      5.19580009      2.07256503
  H        5.48152996      4.31689304      2.61539281
  H        6.90080820      5.30562795      2.30398530
  H        5.31855155      6.06239600      2.49087446
  C        6.49055760      7.62639333     -0.02372590
  H        7.23065655      7.98640363     -0.75739196
  C        7.00543705      8.08904403      1.35447697
  H        6.24453095      7.98570078      2.13347644
  H        7.27664412      9.14979195      1.30735566
  H        7.89403258      7.54129870      1.68106588
  C        3.10450358      1.29466779      2.44214342
  H        2.46505924      2.10867647      2.79767312
  H        2.68634578      0.36297698      2.83200731
  H        4.09565486      1.41312576      2.88996007
  O        7.30453187      0.96080247      0.59323310
  O        8.03386167     -0.06346798     -0.14783132
  H        8.79763876      0.45432608     -0.45126144
  O        1.05225110     -2.48361733      0.07702287
  H        0.92035253     -2.65877705      1.01942019
  C        5.17571302      8.37533011     -0.34787905
  H        4.37652318      8.02954530      0.32101962
  H        5.33178566      9.43425268     -0.09668892
  C        4.69399452      8.30160462     -1.80489330
  H        5.51501496      8.60815839     -2.47044783
  H        4.45388887      7.26617115     -2.06938649
  C        3.47335122      9.19623394     -2.06942800
  H        3.71362196     10.21914552     -1.74590761
  H        2.63583841      8.86693446     -1.43521154
  C        2.99543393      9.24959228     -3.53490048
  H        3.85803631      9.53958551     -4.15479536
  C        2.48747659      7.88978007     -4.04125544
  H        1.63958172      7.54252760     -3.43636540
  H        2.14543484      7.96193238     -5.07996960
  H        3.26331184      7.11852241     -4.00360861
  C        1.91184789     10.32563516     -3.70923831
  H        1.02486061     10.08782549     -3.10798941
  H        1.59233859     10.40325502     -4.75470487
  H        2.27265409     11.31144325     -3.39418474



