%Mem=256MB 
%NProc=48 

#P HF/6-31G* SCF(Conver=6) NoSymm Test 
   Pop=chelpg IOp(6/33=2) GFInput GFPrint 

MEP - Input generated by R.E.D.-III.x MOLECULE 

0 1 
  C        0.99864152     -0.89128899     -1.69239463
  H        1.15333914      0.07700950     -2.18393844
  C        2.21152107     -1.79145357     -1.96756554
  H        2.35243391     -1.90403880     -3.04719358
  H        1.97727213     -2.79353931     -1.57285327
  C        3.48486729     -1.28022317     -1.32115539
  C        3.42376978     -0.91486655      0.16610457
  C        2.12779121     -0.08302939      0.41906022
  H        2.27627841      0.92192761      0.00000000
  H        1.98544496      0.04884659      1.49664471
  C        0.84516175     -0.67182055     -0.18818240
  H        0.59754349     -1.63106761      0.29034637
  H        0.00000000      0.00000000      0.00000000
  C        4.60992613     -1.17282802     -2.04079347
  H        4.59427736     -1.41970961     -3.10291095
  C        5.94685460     -0.74458383     -1.51123847
  H        6.24082372      0.20554947     -1.98632801
  C        6.01044559     -0.60211843      0.01714412
  H        6.16704158     -1.60830869      0.42093677
  C        4.66461456     -0.03361477      0.54687455
  H        4.51454803      0.92591205      0.02450316
  C        4.74462771      0.29177675      2.05573088
  H        4.77833603     -0.63829080      2.63350948
  H        3.83139077      0.80937290      2.36920794
  C        5.95421394      1.16207651      2.44905696
  H        5.85197894      2.15704638      1.99196737
  H        5.93132394      1.31504327      3.53242177
  C        7.28692049      0.54093267      1.98521342
  C        7.16433360      0.32007806      0.44908102
  H        6.92163814      1.31530518      0.03622032
  C        8.59896517      0.00000000      0.00000000
  H        8.76239568      0.20901204     -1.06030816
  H        8.81909950     -1.06349192      0.13806244
  C        9.47763276      0.88670588      0.92263366
  H       10.28048611      0.29591107      1.37978093
  H        9.96792053      1.68440453      0.35631155
  C        8.54181945      1.48157905      2.02888100
  H        8.19313670      2.46876839      1.68500234
  C        7.57408776     -0.77338458      2.74704402
  H        6.81117331     -1.53494665      2.56700511
  H        8.53574148     -1.20929755      2.46134926
  H        7.60412894     -0.59499537      3.82701871
  C        9.28290281      1.71494363      3.37203323
  H        9.69045391      0.74674360      3.69512116
  C        8.36988956      2.24337208      4.49153618
  H        7.87461272      3.17478280      4.18876499
  H        8.93976025      2.45413084      5.40156981
  H        7.59307846      1.52559578      4.76360854
  C        3.37225047     -2.22756240      0.99245581
  H        3.18338992     -2.02380218      2.05096663
  H        2.57341598     -2.88828264      0.64461660
  H        4.31051282     -2.78354748      0.90895873
  O        6.99334368     -1.59993134     -2.03720469
  O        6.82497689     -2.94560488     -1.50107379
  H        6.42827034     -3.39968374     -2.26246546
  O       -0.19072567     -1.40466946     -2.29803903
  H       -0.40692571     -2.25314910     -1.88628967
  C       10.47465245      2.68143455      3.14847693
  H       11.08736908      2.31012535      2.31892443
  H       10.07006247      3.64976668      2.81744900
  C       11.41318304      2.92835083      4.34682015
  H       12.15507597      3.67216203      4.02973767
  H       10.86035596      3.39338879      5.17143976
  C       12.13781277      1.66709491      4.84533881
  H       12.61652672      1.17498544      3.98584720
  H       11.39908429      0.95129432      5.23004705
  C       13.20973779      1.87978381      5.94081605
  H       13.59872552      0.87875380      6.17938968
  C       14.40192020      2.71997982      5.45331685
  H       14.11277235      3.75810189      5.25327279
  H       15.19585875      2.74312117      6.20858219
  H       14.82984447      2.30812520      4.53174824
  C       12.62214865      2.45679420      7.23957981
  H       12.26593382      3.48401891      7.10024674
  H       13.37728862      2.47786550      8.03366011
  H       11.77821011      1.85537969      7.59772819



