%Mem=256MB 
%NProc=48 

#P HF/6-31G* SCF(Conver=6) NoSymm Test 
   Pop=chelpg IOp(6/33=2) GFInput GFPrint 

MEP - Input generated by R.E.D.-III.x MOLECULE 

0 1 
  C        7.51765610      2.21482064      0.07163289
  H        7.35336588      2.18513550      1.15573069
  C        6.82336374      1.00654005     -0.57276183
  H        7.20548467      0.08054051     -0.13159455
  H        7.10664886      0.99022259     -1.63779328
  C        5.31231142      1.06189536     -0.45362373
  C        4.61816039      2.35987571     -0.88114280
  C        5.41119997      3.56489044     -0.28539365
  H        5.21070115      3.60913952      0.79415244
  H        5.02711707      4.49810738     -0.71013397
  C        6.93300634      3.51009567     -0.48946779
  H        7.18095516      3.58100481     -1.55901009
  H        7.40681283      4.36856770      0.00000000
  C        4.63280509     -0.00000000      0.00000000
  H        5.17641641     -0.89043934      0.31765063
  C        3.13965145     -0.09899879      0.10802893
  H        2.85531641     -0.18953455      1.16910804
  C        2.37618075      1.06821542     -0.53592047
  H        2.31973449      0.85411968     -1.60878298
  C        3.15708843      2.39314751     -0.31036582
  H        3.27113187      2.49477012      0.78175963
  C        2.34210198      3.61767082     -0.78603348
  H        2.29722951      3.62975170     -1.88045096
  H        2.85905920      4.53859513     -0.49487935
  C        0.90522621      3.67227949     -0.23131825
  H        0.94025717      3.81627411      0.85837384
  H        0.40710912      4.55477385     -0.64540423
  C        0.12186715      2.38001603     -0.53401981
  C        0.95797772      1.20255189      0.04632602
  H        1.09680407      1.45084555      1.11347619
  C        0.00000000      0.00000000      0.00000000
  H        0.26597589     -0.77326285      0.72532946
  H        0.03023060     -0.48145420     -0.98269502
  C       -1.39295134      0.62700762      0.28126424
  H       -2.11678776      0.31698478     -0.48172773
  H       -1.79899093      0.29299323      1.24161285
  C       -1.21475175      2.18018325      0.26099988
  H       -1.00030389      2.51209471      1.28779300
  C       -0.12684790      2.23580237     -2.05270022
  H        0.80299039      2.16617313     -2.62270318
  H       -0.71451580      1.34384294     -2.28836725
  H       -0.67702216      3.10152542     -2.43663911
  C       -2.49580407      2.91759855     -0.20256010
  H       -2.71532240      2.57889857     -1.22563110
  C       -2.35074852      4.45042696     -0.25089119
  H       -1.96387173      4.85529645      0.69098567
  H       -3.32314215      4.92093393     -0.43921482
  H       -1.67602620      4.77267058     -1.04808450
  C        4.63486181      2.43814785     -2.43104283
  H        4.28126922      3.41186727     -2.78378709
  H        5.64431295      2.29956485     -2.82785317
  H        4.00481798      1.66051036     -2.87225082
  O        2.68568180     -1.39277365     -0.36445722
  O        2.93323316     -1.49183201     -1.79810931
  H        3.72745525     -2.05072730     -1.81066309
  O        8.93913826      2.14639716     -0.06849518
  H        9.16096627      2.19973176     -1.00878596
  C       -3.73761109      2.51970619      0.63986303
  H       -4.61388505      3.00638551      0.18789715
  H       -3.91352653      1.44128980      0.54138125
  C       -3.70011535      2.87739026      2.13521155
  H       -2.85018366      2.37523027      2.61325972
  H       -3.53002010      3.95443667      2.25271587
  C       -5.00117594      2.48008438      2.85205282
  H       -5.16636296      1.40239394      2.70819815
  H       -5.84318684      2.98318120      2.35475143
  C       -5.07996506      2.78486837      4.36622415
  H       -6.07059839      2.43495822      4.69262004
  C       -4.03560158      2.00616682      5.18331942
  H       -3.01603319      2.34256405      4.96227770
  H       -4.19893098      2.14508575      6.25818224
  H       -4.08589708      0.93107056      4.97421246
  C       -5.01018699      4.29020738      4.67249306
  H       -4.02509637      4.70655722      4.43212535
  H       -5.19432645      4.48076896      5.73601755
  H       -5.75861432      4.84935246      4.09861269



