%Mem=256MB 
%NProc=48 

#P HF/6-31G* SCF(Conver=6) NoSymm Test 
   Pop=chelpg IOp(6/33=2) GFInput GFPrint 

MEP - Input generated by R.E.D.-III.x MOLECULE 

0 1 
  C       -1.01120141      1.98209799      1.68443037
  H       -0.99195832      1.00455362      2.18170756
  C        0.31562287      2.70574171      1.95253394
  H        0.47476964      2.80312022      3.03075691
  H        0.22367810      3.72912176      1.55332655
  C        1.50249867      2.01439327      1.30802417
  C        1.38566591      1.66269059     -0.17842135
  C       -0.01147042      1.01300193     -0.42586831
  H        0.00000000      0.00000000      0.00000000
  H       -0.17494685      0.89538423     -1.50235243
  C       -1.19857051      1.77636259      0.18158406
  H       -1.31360652      2.75754216     -0.30241697
  H       -2.12899968      1.22643341      0.00000000
  C        2.59953687      1.75089836      2.03004166
  H        2.62707799      2.01376451      3.08515216
  C        3.86401272      1.14209617      1.49975621
  H        4.04587159      0.16828732      1.98045119
  C        3.90602261      0.99225097     -0.02991325
  H        4.20923045      1.96638755     -0.43575435
  C        2.49384983      0.62479147     -0.56596291
  H        2.21373073     -0.31056275     -0.05455500
  C        2.53782065      0.31141822     -2.07889652
  H        2.71405741      1.23438968     -2.64193653
  H        1.55959279     -0.05852232     -2.40451405
  C        3.60569025     -0.72458949     -2.47920842
  H        3.35213329     -1.69907451     -2.03722811
  H        3.56945381     -0.85750820     -3.56480987
  C        5.01345618     -0.31708577     -1.99976734
  C        4.91197618     -0.09040729     -0.46324177
  H        4.51614832     -1.03856417     -0.06030084
  C        6.37425655     -0.00000000      0.00000000
  H        6.49002315     -0.24780819      1.05968121
  H        6.75905489      1.01704884     -0.12528449
  C        7.11480270     -1.00640442     -0.92119484
  H        8.00577708     -0.54549090     -1.36418099
  H        7.46624339     -1.87431645     -0.35516084
  C        6.10933369     -1.43938115     -2.04162050
  H        5.60967149     -2.36390927     -1.71056272
  C        5.50516345      0.94320416     -2.74831160
  H        4.86295091      1.80972382     -2.57179641
  H        6.51829183      1.22792019     -2.44929247
  H        5.52143671      0.76913317     -3.82903466
  C        6.81606822     -1.77096064     -3.38190655
  H        7.37687693     -0.87687333     -3.69446921
  C        5.83509447     -2.13830523     -4.50994187
  H        5.16675022     -2.95008917     -4.19676549
  H        6.36730798     -2.47598371     -5.40425157
  H        5.21357057     -1.29219432     -4.81165622
  C        1.50666669      2.96992941     -1.00647061
  H        1.27654371      2.79659281     -2.06237271
  H        0.81418436      3.73576359     -0.64759035
  H        2.51401337      3.39108238     -0.93700283
  O        4.99209351      1.99435274      1.82249659
  O        5.17566775      1.96173251      3.27011544
  H        6.03962691      1.52114971      3.32449780
  O       -2.11823206      2.65866068      2.28668751
  H       -2.19165905      3.54072754      1.89585111
  C        7.84780478     -2.91114003     -3.18134737
  H        8.39550228     -2.74310596     -2.24919178
  H        7.30321406     -3.85889448     -3.04724266
  C        8.86863894     -3.06803007     -4.32044806
  H        8.34622638     -3.19472912     -5.27628204
  H        9.44362269     -2.13698261     -4.41682293
  C        9.82640895     -4.26310365     -4.15565707
  H       10.44705514     -4.34108154     -5.06068948
  H        9.22856855     -5.18537817     -4.11942177
  C       10.76627570     -4.24421717     -2.93110666
  H       10.14965655     -4.18846040     -2.02261056
  C       11.56925777     -5.55310139     -2.86054924
  H       12.21272757     -5.66522585     -3.74272499
  H       12.21377185     -5.57781566     -1.97443002
  H       10.90767008     -6.42602106     -2.81868068
  C       11.71113512     -3.03206792     -2.93532918
  H       12.33609882     -3.02891562     -3.83792910
  H       12.38107484     -3.05498803     -2.06828770
  H       11.16621643     -2.08297048     -2.90483048



