%Mem=256MB 
%NProc=48 

#P HF/6-31G* SCF(Conver=6) NoSymm Test 
   Pop=chelpg IOp(6/33=2) GFInput GFPrint 

MEP - Input generated by R.E.D.-III.x MOLECULE 

0 1 
  C       -1.00417322      1.98204618      1.68858814
  H       -0.98816439      1.00318500      2.18327494
  C        0.32491292      2.70127085      1.95964962
  H        0.48154599      2.79664051      3.03876539
  H        0.23546164      3.72496018      1.56106795
  C        1.51137356      2.01080172      1.31459091
  C        1.39740196      1.65413215     -0.17173627
  C       -0.00433840      1.01486453     -0.42143646
  H        0.00000000      0.00000000      0.00000000
  H       -0.16549093      0.90213720     -1.49853455
  C       -1.18932866      1.78185459      0.18524935
  H       -1.29867686      2.76511169     -0.29607789
  H       -2.12167323      1.23645400      0.00000000
  C        2.60919193      1.74412008      2.03486920
  H        2.62936388      1.99333413      3.09636949
  C        3.86964050      1.12473101      1.50703836
  H        4.02080919      0.14198932      1.98274711
  C        3.91299802      0.97359955     -0.02110652
  H        4.21337510      1.94635370     -0.42555691
  C        2.49942445      0.60390141     -0.55145524
  H        2.21321616     -0.32369262     -0.02826770
  C        2.53150403      0.26903353     -2.06034701
  H        2.69733547      1.18423460     -2.63897991
  H        1.55333163     -0.11263154     -2.37280119
  C        3.60373189     -0.76592581     -2.45339873
  H        3.35833635     -1.73623713     -1.99769329
  H        3.56292819     -0.91267968     -3.53745707
  C        5.01043867     -0.34274950     -1.98722031
  C        4.92152774     -0.10621037     -0.45149635
  H        4.53534336     -1.05521260     -0.03919987
  C        6.38811182     -0.00000000     -0.00000000
  H        6.51786385     -0.24574758      1.05714425
  H        6.75762983      1.02322126     -0.12196817
  C        7.13511322     -0.98781133     -0.93743226
  H        7.99554633     -0.49735709     -1.40787841
  H        7.53563725     -1.84368652     -0.38447533
  C        6.11476799     -1.45517576     -2.02600307
  H        5.62467502     -2.37088555     -1.66304073
  C        5.48358799      0.91423705     -2.75217879
  H        4.83533094      1.77672763     -2.57832932
  H        6.49617569      1.21151642     -2.46447185
  H        5.49097428      0.72804948     -3.83146412
  C        6.80071143     -1.80281093     -3.37076908
  H        7.29831297     -0.88978296     -3.72903276
  C        5.82238629     -2.25141052     -4.47284813
  H        5.16098215     -3.05547062     -4.13115105
  H        6.37314136     -2.62351398     -5.34497188
  H        5.18906839     -1.42979821     -4.81704280
  C        1.53223613      2.95871054     -1.00148958
  H        1.31437969      2.78147281     -2.05918098
  H        0.83646638      3.72748598     -0.65429498
  H        2.54035228      3.37528327     -0.92081262
  O        5.02962961      1.81771818      2.03370622
  O        5.06189855      3.17274244      1.49582099
  H        4.73138567      3.68104186      2.25457207
  O       -2.10757998      2.66139642      2.29348974
  H       -2.20176074      3.53047548      1.87872408
  C        7.93371006     -2.84973795     -3.19659198
  H        8.42969981     -2.96582761     -4.17101660
  H        8.69872603     -2.44857972     -2.52024189
  C        7.51514421     -4.24211846     -2.69510402
  H        7.04614527     -4.15276224     -1.70761526
  H        6.75328487     -4.66125685     -3.36343178
  C        8.71175585     -5.20411299     -2.61049249
  H        9.47325127     -4.76035256     -1.95276989
  H        9.17615813     -5.27434698     -3.60487428
  C        8.41558943     -6.63758272     -2.11122722
  H        9.38075111     -7.16548224     -2.12175485
  C        7.90208533     -6.66687225     -0.66203036
  H        6.90785885     -6.21342011     -0.57579168
  H        7.82320098     -7.69736946     -0.29712241
  H        8.57651154     -6.12495003      0.01143598
  C        7.47011516     -7.40815272     -3.04771824
  H        6.46124289     -6.97954952     -3.04587541
  H        7.38043793     -8.45513008     -2.73610661
  H        7.83603659     -7.39754600     -4.08121442



