%Mem=256MB 
%NProc=48 

#P HF/6-31G* SCF(Conver=6) NoSymm Test 
   Pop=chelpg IOp(6/33=2) GFInput GFPrint 

MEP - Input generated by R.E.D.-III.x MOLECULE 

0 1 
  C        0.99835240     -0.90788980     -1.68425644
  H        1.15648689      0.05675622     -2.18193859
  C        2.20846992     -1.81329246     -1.95238457
  H        2.35198597     -1.93259100     -3.03060019
  H        1.97175267     -2.81306907     -1.55293365
  C        3.48181335     -1.29783015     -1.30822277
  C        3.41659941     -0.93258901      0.17815924
  C        2.12634371     -0.09042166      0.42569293
  H        2.28203851      0.91068477      0.00000000
  H        1.98130091      0.04899793      1.50217996
  C        0.84255904     -0.67695511     -0.18144921
  H        0.58894910     -1.63152844      0.30299048
  H        0.00000000      0.00000000      0.00000000
  C        4.60502772     -1.19312104     -2.03045348
  H        4.59479466     -1.45728491     -3.08555461
  C        5.94316761     -0.76973779     -1.50030111
  H        6.26025778      0.16961473     -1.97942881
  C        6.00669743     -0.62958072      0.02954743
  H        6.16653296     -1.63760535      0.43428614
  C        4.66147878     -0.06288990      0.56516868
  H        4.51830535      0.90188901      0.05166946
  C        4.74740389      0.24480573      2.07779771
  H        4.78487342     -0.69225506      2.64372825
  H        3.83302139      0.75498580      2.39933582
  C        5.95473815      1.11424341      2.47908369
  H        5.84640878      2.11522246      2.03690463
  H        5.93875071      1.25090287      3.56503431
  C        7.28732165      0.50470507      2.00113988
  C        7.15748780      0.29680692      0.46430900
  H        6.90076777      1.29229097      0.06315784
  C        8.59315108      0.00000000     -0.00000000
  H        8.74582933      0.24859229     -1.05489617
  H        8.82299557     -1.06503162      0.10476167
  C        9.47478177      0.86533110      0.94169589
  H       10.26172646      0.25526823      1.40051012
  H        9.98613031      1.66438082      0.39527380
  C        8.53386586      1.45520182      2.04197140
  H        8.17181886      2.43304808      1.69127464
  C        7.58675144     -0.81211508      2.75304584
  H        6.82191110     -1.57362198      2.58120860
  H        8.54532453     -1.24662678      2.45416976
  H        7.62998273     -0.63727815      3.83325139
  C        9.26902165      1.69137292      3.38487544
  H        9.64070718      0.71548700      3.72993294
  C        8.36669717      2.25537106      4.49863943
  H        7.81784007      3.14517642      4.17063567
  H        8.96782021      2.53941763      5.37050407
  H        7.63021718      1.52294741      4.83866400
  C        3.35026450     -2.24340584      1.00681835
  H        3.14735042     -2.03853673      2.06265426
  H        2.55560830     -2.90281894      0.64833312
  H        4.28729451     -2.80389954      0.93756957
  O        6.93945204     -1.77192769     -1.82565143
  O        7.12593683     -1.76171058     -3.27320044
  H        8.04297711     -1.44593483     -3.32663565
  O       -0.19393099     -1.42006954     -2.28602809
  H       -0.39222517     -2.28247759     -1.89472894
  C       10.53213992      2.57746693      3.21273156
  H       11.04340526      2.61633631      4.18525882
  H       11.23344251      2.08342533      2.52878571
  C       10.30296588      4.01829113      2.72733694
  H        9.83732866      4.01001137      1.73212212
  H        9.59496633      4.52352707      3.39467312
  C       11.60986260      4.82292731      2.65408653
  H       12.33178496      4.26196144      2.04316039
  H       12.05255183      4.89010802      3.65980469
  C       11.48187429      6.24517762      2.07138621
  H       11.00678155      6.15691776      1.08188280
  C       10.60065945      7.16081432      2.93663704
  H       11.01810332      7.25918480      3.94729792
  H       10.53855698      8.16621106      2.50479847
  H        9.57886950      6.78037187      3.03286080
  C       12.87065559      6.87165542      1.86864531
  H       13.39313521      6.98191322      2.82759728
  H       12.79641325      7.86681973      1.41553753
  H       13.49793605      6.25209728      1.21750305



