%Mem=256MB 
%NProc=48 

#P HF/6-31G* SCF(Conver=6) NoSymm Test 
   Pop=chelpg IOp(6/33=2) GFInput GFPrint 

MEP - Input generated by R.E.D.-III.x MOLECULE 

0 1 
  C        1.75954751     -1.24765481     -0.07181661
  H        1.87318551     -1.12154867     -1.15552854
  C        3.15107305     -1.31129329      0.57286101
  H        3.72959721     -2.12709806      0.12884817
  H        3.01411044     -1.56419574      1.63700795
  C        3.91302257     -0.00447387      0.45587554
  C        3.18718022      1.27110405      0.89510078
  C        1.74698374      1.25388557      0.29439045
  H        1.82189559      1.44993579     -0.78432212
  H        1.16313188      2.07704173      0.71972264
  C        0.97758706     -0.06143681      0.49157133
  H        0.78195792     -0.23658915      1.55986648
  H        0.00000000      0.00000000      0.00000000
  C        5.17254198     -0.00000000     -0.00000000
  H        5.63846599     -0.93359070     -0.30730850
  C        6.05862919      1.20688853     -0.09492881
  H        6.31479502      1.40661440     -1.14703747
  C        5.48149787      2.47367909      0.55796334
  H        5.69817189      2.40368684      1.63208508
  C        3.94290554      2.52768943      0.34250051
  H        3.79270193      2.50573848     -0.74921801
  C        3.35755429      3.86608453      0.84764092
  H        3.39127339      3.89387360      1.94219130
  H        2.29799320      3.92747790      0.57676513
  C        4.07160569      5.11593158      0.29816843
  H        3.91446861      5.17754509     -0.78846421
  H        3.59894201      6.00305839      0.73072599
  C        5.58801281      5.08316715      0.57595236
  C        6.12126009      3.74882462     -0.02218601
  H        5.82141241      3.77197447     -1.08407019
  C        7.64899282      3.91183001      0.00000000
  H        8.14558365      3.27015941     -0.73443274
  H        8.05471341      3.63608756      0.97852502
  C        7.86239115      5.41983507     -0.30040026
  H        8.54976257      5.86801522      0.42703938
  H        8.31781197      5.56537206     -1.28456853
  C        6.45960140      6.11290844     -0.22542915
  H        6.03901661      6.13902576     -1.24348619
  C        5.87152093      5.20252296      2.09114297
  H        5.44157119      4.37555861      2.66186538
  H        6.94390651      5.21863698      2.30709267
  H        5.44460157      6.12724751      2.49258069
  C        6.54603506      7.58410594      0.25819517
  H        7.02668978      7.58299063      1.24842936
  C        5.16930611      8.25889048      0.39603007
  H        4.59893252      8.17588074     -0.53753300
  H        5.27061114      9.32356008      0.62686277
  H        4.56851144      7.81735761      1.19435436
  C        3.10536031      1.28426904      2.44504023
  H        2.46301093      2.09440571      2.80420209
  H        2.69081888      0.34947001      2.83122022
  H        4.09620350      1.40448344      2.89305940
  O        7.30295478      0.95874036      0.60731415
  O        8.03560344     -0.06457582     -0.13188396
  H        8.80207198      0.45285444     -0.42901690
  O        1.05250746     -2.48364410      0.06380204
  H        0.92143008     -2.66349724      1.00542730
  C        7.45231353      8.41219841     -0.68924114
  H        8.33587335      7.82239435     -0.95110989
  H        6.91100462      8.58399297     -1.63278390
  C        7.92255551      9.76091549     -0.11994162
  H        7.05700838     10.35750173      0.19230692
  H        8.50476218      9.58045566      0.79395850
  C        8.74161293     10.61598272     -1.10517525
  H        8.94588349     11.59012635     -0.63647103
  H        8.11579845     10.82927642     -1.98391211
  C       10.08331068     10.02958923     -1.59427620
  H        9.88182777      9.06571522     -2.08319815
  C       10.71234388     10.95543497     -2.64787164
  H       10.94298708     11.93832881     -2.21707849
  H       11.64679847     10.53699715     -3.03892265
  H       10.03546925     11.11452608     -3.49520319
  C       11.06831191      9.77740396     -0.44177539
  H       11.28571015     10.70982760      0.09543996
  H       12.01870419      9.38250830     -0.81849467
  H       10.67837095      9.05780918      0.28539852



