%Mem=256MB 
%NProc=12 

#P HF/6-31G* SCF(Conver=6) NoSymm Test 
   Pop=mk IOp(6/33=2) GFInput GFPrint 

MEP - Input generated by R.E.D.-III.x MOLECULE 

0 1 
  O        4.21254650      6.54917048      4.12465813
  H        4.99110486      6.90037817      3.67250002
  C        0.00000000      0.00000000      0.00000000
  C        1.34511523      0.61897647     -0.47338573
  H        2.12688614      0.00000000     -0.00000000
  C        1.61221173      2.05370880      0.00000000
  H        0.84751224      2.72186622     -0.42102119
  C        1.54701975      2.11707114      1.54860663
  H        2.41090021      1.53056460      1.90311254
  C        0.09177758     -1.40316008     -0.69420368
  H        0.84483279     -1.96706409     -0.12399750
  C        0.03461878      0.00909583      1.54201102
  H        0.83688400     -0.66308559      1.87963039
  H       -0.89573735     -0.37751477      1.97060879
  C        1.76233819      3.56841624      2.10545500
  C        1.40107386      0.30962356     -1.97762403
  H        2.42592467      0.28818606     -2.36149199
  H        0.86538395      1.07613686     -2.55142353
  C        0.28007279      1.42519269      2.10340355
  H       -0.60136552      2.04027183      1.89327784
  H        0.34517386      1.35772135      3.19529585
  C        0.69757637     -1.07104655     -2.09802601
  H       -0.09414563     -1.03741707     -2.85568381
  H        1.39501453     -1.85163127     -2.41824901
  C        2.98531193      2.54608674     -0.48507147
  H        2.95073301      2.75982929     -1.56166269
  H        3.72616145      1.73691693     -0.37288288
  C       -1.17322594     -2.29167187     -0.79078334
  H       -1.92419520     -1.72994985     -1.36538971
  C       -1.22909560      0.77883144     -0.52178608
  H       -2.15505788      0.34605541     -0.12813266
  H       -1.21279328      1.82983795     -0.22321850
  H       -1.29737550      0.75503337     -1.61368050
  C        2.93682822      4.24374637      1.38338651
  C        2.11660321      3.47176346      3.62228416
  H        2.89204255      2.70271099      3.74446607
  H        1.24104392      3.12123467      4.17948187
  C        3.46987898      3.76321251      0.25037181
  H        4.32059557      4.28648826     -0.18772328
  C        0.49428893      4.44518733      1.92437353
  H       -0.32294143      4.10469987      2.56800893
  H        0.68898098      5.48995280      2.17884744
  H        0.14532490      4.42566869      0.88727005
  C        3.48791125      5.50739178      2.01752129
  H        4.37505247      5.83835536      1.46225934
  H        2.75540000      6.32489038      1.95921552
  C        2.62059729      4.77760415      4.25393326
  H        1.83893318      5.54749983      4.25047013
  H        2.88844525      4.60727960      5.30289329
  C       -0.91862838     -3.59031718     -1.60235616
  H       -1.88123641     -4.11223538     -1.70191613
  H       -0.61690642     -3.32795414     -2.62416926
  C        3.83072816      5.31625382      3.50209269
  H        4.65677523      4.59096209      3.58790843
  C       -1.80136164     -2.62741379      0.57494232
  H       -1.06500289     -3.03905834      1.27420696
  H       -2.59867580     -3.37087623      0.45710649
  H       -2.24591681     -1.74804690      1.04767272
  C        0.11093940     -4.57524323     -1.02325152
  H        1.08891578     -4.08437891     -0.94718315
  H       -0.17723706     -4.85147708     -0.00183252
  C        0.23805856     -5.84344459     -1.88353765
  H        0.50247099     -5.54724013     -2.90914230
  H       -0.75031660     -6.32057447     -1.95288077
  C        1.25704780     -6.90496080     -1.40753595
  H        1.19981647     -7.72595750     -2.13760550
  C        0.89885767     -7.49687957     -0.03422892
  H       -0.13020704     -7.87487550     -0.01860845
  H        1.56454174     -8.33065197      0.21665182
  H        0.99354580     -6.75196624      0.76429128
  C        2.70489808     -6.38706547     -1.42497630
  H        2.96841949     -5.97182302     -2.40492571
  H        3.41094937     -7.19587583     -1.20455394
  H        2.86326642     -5.60283502     -0.67569134



