%Mem=256MB 
%NProc=12 

#P HF/6-31G* SCF(Conver=6) NoSymm Test 
   Pop=mk IOp(6/33=2) GFInput GFPrint 

MEP - Input generated by R.E.D.-III.x MOLECULE 

0 1 
  O        0.42645063     -3.38218153      7.25488840
  H        0.26589752     -4.32394072      7.10908288
  C        1.50636524      1.50150206      0.00000000
  C        1.10380781      0.00000000      0.00000000
  H        0.00000000      0.00000000      0.00000000
  C        1.51616513     -0.79203660      1.24761008
  H        2.61300368     -0.80922653      1.31908161
  C        0.93372380     -0.11536400      2.51620125
  H       -0.15904651     -0.24274589      2.44149708
  C        0.95224159      1.92741698     -1.40383174
  H       -0.14186866      1.95836396     -1.29346867
  C        0.82563091      2.13540349      1.23038568
  H       -0.26430185      2.09245320      1.09022134
  H        1.08394619      3.19410628      1.33596965
  C        1.35627444     -0.84428302      3.84020003
  C        1.53581774     -0.51267488     -1.38278536
  H        0.96257462     -1.38928205     -1.70072490
  H        2.59113641     -0.81260381     -1.37291933
  C        1.20512326      1.40699503      2.53658100
  H        2.26443164      1.59281802      2.74332779
  H        0.65290437      1.86878646      3.36291162
  C        1.31147447      0.70890318     -2.31716881
  H        2.21600284      0.92292384     -2.89856677
  H        0.51712292      0.51790245     -3.04572875
  C        1.02780700     -2.24710092      1.16142029
  H        1.63387023     -2.80614588      0.43610221
  H        0.00123322     -2.26661972      0.75897109
  C        1.39135290      3.27876806     -2.02031063
  H        2.48464929      3.24568282     -2.13549444
  C        3.03738865      1.70654069      0.05866481
  H        3.28169050      2.77307839      0.10844647
  H        3.48716441      1.23221585      0.93430216
  H        3.54067920      1.29833892     -0.82311285
  C        1.21281491     -2.36403060      3.67689910
  C        0.40065050     -0.38738234      4.98634173
  H       -0.63221089     -0.44958983      4.61620142
  H        0.58523723      0.66766776      5.21599541
  C        1.05172732     -2.95749068      2.48499553
  H        0.93052674     -4.04094240      2.45489046
  C        2.82369121     -0.52025364      4.22899298
  H        2.93552714      0.52515962      4.53340642
  H        3.16253312     -1.13597540      5.06581418
  H        3.50467782     -0.70913636      3.39333692
  C        1.25915970     -3.19113772      4.94826259
  H        1.05456842     -4.24252434      4.70826085
  H        2.26138988     -3.15900768      5.39857201
  C        0.50507365     -1.20605416      6.28136405
  H        1.49190212     -1.08884722      6.74631806
  H       -0.23000480     -0.84800302      7.01111001
  C        0.83085599      3.48044148     -3.45387997
  H        1.26264686      4.41079180     -3.85002381
  H        1.20250660      2.68019628     -4.10614983
  C        0.27249418     -2.68687859      6.01138220
  H       -0.75607440     -2.82507894      5.63893954
  C        1.06224382      4.49870085     -1.13943897
  H        0.00999176      4.51130470     -0.83406507
  H        1.26056916      5.42913318     -1.68468599
  H        1.66747952      4.52121978     -0.22972908
  C       -0.69900460      3.55686852     -3.59221581
  H       -1.14901927      2.62303166     -3.23359693
  H       -1.08785804      4.35518500     -2.94868539
  C       -1.13125166      3.81045057     -5.04598499
  H       -0.71257348      3.01587464     -5.68070821
  H       -0.66905452      4.74679542     -5.39091827
  C       -2.65235172      3.89307327     -5.31274606
  H       -2.75910159      4.08123739     -6.39140786
  C       -3.31955584      5.06981673     -4.58147751
  H       -2.80938753      6.01567203     -4.79869897
  H       -4.36617038      5.17687588     -4.88870574
  H       -3.31135574      4.92746380     -3.49466354
  C       -3.37989340      2.57208327     -5.01198252
  H       -2.91341183      1.73081127     -5.53812605
  H       -4.42803759      2.62349664     -5.32824042
  H       -3.37363178      2.34147173     -3.94039259



