%Mem=256MB 
%NProc=12 

#P HF/6-31G* SCF(Conver=6) NoSymm Test 
   Pop=mk IOp(6/33=2) GFInput GFPrint 

MEP - Input generated by R.E.D.-III.x MOLECULE 

0 1 
  O        4.15713767      6.54217870      4.15267591
  H        4.93502431      6.89988976      3.70448088
  C        0.00000000      0.00000000      0.00000000
  C        1.34105647      0.61327333     -0.47703443
  H        2.12458515      0.00000000      0.00000000
  C        1.59920551      2.04757861      0.00000000
  H        0.83268603      2.71431287     -0.41961213
  C        1.53027305      2.10045101      1.55176857
  H        2.40119085      1.52138490      1.90112397
  C        0.10068601     -1.40252675     -0.67691970
  H        0.91025245     -1.90567436     -0.12824890
  C        0.02796319     -0.01614242      1.53850183
  H        0.83042973     -0.69123503      1.86971196
  H       -0.90817250     -0.41660388      1.95050450
  C        1.73353892      3.55179938      2.11430737
  C        1.39355219      0.28513194     -1.98187756
  H        2.41962990      0.24059443     -2.36036308
  H        0.87577610      1.05557875     -2.56664355
  C        0.27238245      1.39360732      2.11712242
  H       -0.61471672      2.00749971      1.93113521
  H        0.35742420      1.31280945      3.20656091
  C        0.66064655     -1.08823005     -2.09996965
  H       -0.14145170     -1.02922049     -2.84099072
  H        1.33704203     -1.87945079     -2.43974463
  C        2.97165037      2.54911529     -0.47632762
  H        2.94038832      2.76546783     -1.55258350
  H        3.71622014      1.74349913     -0.36323559
  C       -1.11725839     -2.36716631     -0.58469355
  H       -1.61894130     -2.14875950      0.37060276
  C       -1.22853298      0.79187084     -0.50031552
  H       -2.15412235      0.32378689     -0.14794156
  H       -1.23081064      1.82178561     -0.13537398
  H       -1.27539482      0.83917638     -1.59193756
  C        2.90607689      4.23810279      1.39876996
  C        2.08211701      3.45342890      3.63238981
  H        2.86105826      2.68809950      3.75593882
  H        1.20616068      3.09707165      4.18516620
  C        3.44600362      3.76642275      0.26529026
  H        4.29448638      4.29743153     -0.16775736
  C        0.46073622      4.42116956      1.93018960
  H       -0.35709529      4.07505487      2.57006465
  H        0.64849722      5.46653545      2.18739506
  H        0.11605455      4.40184701      0.89169708
  C        3.44613600      5.50318527      2.03959266
  H        4.33269141      5.84235759      1.48838422
  H        2.70811958      6.31576788      1.98184614
  C        2.57598787      4.76023714      4.27001113
  H        1.78951556      5.52524921      4.26630837
  H        2.84093124      4.58794478      5.31938956
  C       -2.17791309     -2.21850864     -1.70190870
  H       -2.30824446     -1.16448209     -1.96706038
  H       -1.81362181     -2.71556673     -2.61245768
  C        3.78536204      5.30904704      3.52450560
  H        4.61571572      4.58873337      3.61066616
  C       -0.62141636     -3.82604699     -0.50967531
  H       -0.04751330     -4.08827328     -1.40733756
  H       -1.45013370     -4.53669760     -0.42845394
  H        0.02972363     -3.97893981      0.35816473
  C       -3.55821755     -2.79066406     -1.33690547
  H       -3.46275247     -3.84924350     -1.06734128
  H       -3.92518947     -2.27619162     -0.43842748
  C       -4.57621708     -2.63873528     -2.47848881
  H       -4.17976345     -3.14363351     -3.37135163
  H       -4.65191258     -1.57383280     -2.74250494
  C       -6.00235892     -3.17468985     -2.21188078
  H       -6.57484338     -2.97646371     -3.13016736
  C       -6.71164284     -2.42967147     -1.06883564
  H       -6.70083213     -1.34547077     -1.23175512
  H       -7.75836396     -2.74460458     -0.98865365
  H       -6.23648699     -2.62723692     -0.10102714
  C       -6.03136128     -4.69489233     -1.98210465
  H       -5.53342438     -5.23154935     -2.79828743
  H       -7.06291711     -5.06043294     -1.92282699
  H       -5.53286587     -4.97233486     -1.04615829



