%Mem=256MB 
%NProc=12 

#P HF/6-31G* SCF(Conver=6) NoSymm Test 
   Pop=mk IOp(6/33=2) GFInput GFPrint 

MEP - Input generated by R.E.D.-III.x MOLECULE 

0 1 
  O       -3.73032339     -3.61343867     -4.12471839
  H       -3.88133135     -4.45434342     -3.67303491
  C        1.60032341      2.06303099      0.00000000
  C        1.32674011      0.60784216      0.47337840
  H        2.11714995      0.00000000     -0.00000000
  C        0.00000000      0.00000000      0.00000000
  H       -0.83392399      0.57908384      0.42146413
  C       -0.07796657      0.04829802     -1.54852684
  H        0.70069829     -0.64703763     -1.90370826
  C        2.98383792      2.31395179      0.69489944
  H        3.71199964      1.71444889      0.12807877
  C        1.59940875      2.02766753     -1.54203152
  H        2.44615240      1.41263990     -1.88002665
  H        1.74808692      3.02416804     -1.97020426
  C       -1.43377723     -0.51310327     -2.10478962
  C        1.63992294      0.62829179      1.97788608
  H        1.91461084     -0.36002733      2.35986187
  H        0.76440040      0.95598509      2.55213443
  C        0.28524888      1.44542224     -2.10306746
  H       -0.52537950      2.15115309     -1.89284893
  H        0.36635205      1.39879882     -3.19496727
  C        2.80322228      1.65181837      2.10077955
  H        2.56867455      2.41493264      2.85221512
  H        3.72975398      1.17187490      2.43101306
  C       -0.14354181     -1.45179035      0.48460697
  H       -0.35885996     -1.47063051      1.56128185
  H        0.82141311     -1.97367451      0.37185068
  C        3.54472843      3.75469787      0.78394266
  H        2.82321992      4.34659674      1.36670730
  C        0.54614688      3.06568764      0.52262797
  H        0.74328466      4.07026233      0.13341411
  H       -0.46885312      2.79687566      0.21999926
  H        0.54954067      3.13334829      1.61475941
  C       -1.80270237     -1.81702616     -1.38342463
  C       -1.25510183     -0.83198825     -3.62200776
  H       -0.32042461     -1.39668797     -3.74529248
  H       -1.12877860      0.10297288     -4.17863899
  C       -1.20661575     -2.21755043     -0.25070646
  H       -1.50700984     -3.17018636      0.18713340
  C       -2.59248443      0.50357207     -1.92213064
  H       -2.46063084      1.38010319     -2.56427440
  H       -3.55850316      0.06111275     -2.17762989
  H       -2.65858738      0.84503150     -0.88445821
  C       -2.89484917     -2.65840893     -2.01748031
  H       -3.00009480     -3.59970247     -1.46271586
  H       -3.86569728     -2.14634568     -1.95834673
  C       -2.39938121     -1.63827962     -4.25342666
  H       -3.33639344     -1.06753368     -4.24918423
  H       -2.16956122     -1.85591050     -5.30266540
  C        4.85935661      3.82113454      1.61386485
  H        5.17937911      4.87242868      1.64893587
  H        4.61032436      3.55753743      2.64869637
  C       -2.62695965     -2.94359646     -3.50236677
  H       -1.72254570     -3.56833070     -3.58912456
  C        3.68145187      4.45134297     -0.58373965
  H        4.19573259      3.82450796     -1.31886427
  H        4.24940361      5.38349563     -0.48704979
  H        2.70469018      4.70923186     -1.00218704
  C        6.06987163      2.95433412      1.19937946
  H        6.74381939      2.92316780      2.06506414
  H        5.74772260      1.91818133      1.04003809
  C        6.86855167      3.44689912     -0.02070906
  H        7.06986022      4.52115264      0.10094504
  H        6.25836047      3.35439821     -0.92640315
  C        8.21551176      2.72997208     -0.28249961
  H        8.62290798      3.18381361     -1.19809421
  C        8.04123552      1.22786659     -0.56242593
  H        7.31416662      1.05289972     -1.36430324
  H        8.99112164      0.77504212     -0.86892288
  H        7.69448338      0.68901489      0.32695172
  C        9.24849376      2.96797749      0.83171126
  H        9.38397646      4.03817242      1.02759609
  H       10.22392433      2.55403045      0.55157939
  H        8.95144712      2.49059809      1.77256564



