%Mem=256MB 
%NProc=12 

#P HF/6-31G* SCF(Conver=6) NoSymm Test 
   Pop=mk IOp(6/33=2) GFInput GFPrint 

MEP - Input generated by R.E.D.-III.x MOLECULE 

0 1 
  O       -3.74638728     -3.60218464     -4.11963769
  H       -3.89610871     -4.44410324     -3.66941771
  C        1.60048951      2.06381303      0.00000000
  C        1.32736552      0.60815420      0.47204272
  H        2.11849686      0.00000000     -0.00000000
  C        0.00000000      0.00000000      0.00000000
  H       -0.83320252      0.57732275      0.42521424
  C       -0.08326894      0.05203074     -1.54808316
  H        0.69433983     -0.64200671     -1.90802559
  C        2.98637715      2.31897636      0.68815953
  H        3.72630618      1.74623111      0.10632462
  C        1.59408049      2.03015082     -1.54229720
  H        2.43864761      1.41370335     -1.88310873
  H        1.74403123      3.02620046     -1.97080915
  C       -1.44105236     -0.50793851     -2.10087719
  C        1.63964745      0.63257317      1.97564290
  H        1.88988950     -0.35806170      2.36820352
  H        0.77204403      0.98803397      2.54533150
  C        0.27731069      1.45096878     -2.09970145
  H       -0.53216459      2.15607953     -1.88291351
  H        0.35344403      1.40820792     -3.19209659
  C        2.82890843      1.62591251      2.08639759
  H        2.64402593      2.37489539      2.86545558
  H        3.74784773      1.10589754      2.37269823
  C       -0.14149443     -1.45295958      0.48164713
  H       -0.35331838     -1.47441532      1.55895548
  H        0.82313330     -1.97444505      0.36443540
  C        3.53045489      3.76554444      0.80670811
  H        2.83056580      4.32491144      1.44487656
  C        0.54592097      3.06293175      0.53027110
  H        0.73002104      4.06689936      0.13407460
  H       -0.47098725      2.78501604      0.24254408
  H        0.56322386      3.13658110      1.62191561
  C       -1.80763077     -1.81346681     -1.38116154
  C       -1.26790364     -0.82322000     -3.61943798
  H       -0.33399624     -1.38811690     -3.74765550
  H       -1.14304428      0.11309648     -4.17416022
  C       -1.20713967     -2.21695981     -0.25181965
  H       -1.50600107     -3.17066399      0.18475997
  C       -2.59889585      0.50857084     -1.91177142
  H       -2.47041935      1.38555230     -2.55399965
  H       -3.56626306      0.06639491     -2.16256873
  H       -2.65980577      0.84941061     -0.87359631
  C       -2.90221488     -2.65321614     -2.01316383
  H       -3.00514041     -3.59599333     -1.46048605
  H       -3.87294515     -2.14153371     -1.94873977
  C       -2.41503135     -1.62725704     -4.24848547
  H       -3.35176358     -1.05611569     -4.23906488
  H       -2.18947790     -1.84236053     -5.29916734
  C        4.92144209      3.78128618      1.51365628
  H        5.13174228      2.79791972      1.94684271
  H        5.70434933      3.94329778      0.75904437
  C       -2.64028186     -2.93442738     -3.49986718
  H       -1.73651313     -3.55930742     -3.59184649
  C        3.62244392      4.49741042     -0.54523874
  H        4.20647444      3.91168941     -1.26601325
  H        4.12171108      5.46428296     -0.42926782
  H        2.64112690      4.68808578     -0.98710378
  C        5.08398241      4.82289805      2.63883500
  H        4.31662571      4.63341269      3.40144799
  H        6.05032997      4.64349228      3.12753840
  C        5.01108426      6.28901945      2.18297481
  H        4.02953392      6.48010869      1.72908913
  H        5.75216600      6.44641402      1.38565763
  C        5.24431609      7.35789911      3.27770872
  H        5.14623727      8.33047176      2.77299305
  C        6.66106151      7.30194181      3.87318802
  H        7.42559231      7.33838314      3.08816740
  H        6.83348145      8.14942091      4.54646776
  H        6.82150687      6.38664540      4.45438662
  C        4.17776592      7.31537440      4.38476789
  H        3.16559272      7.36326805      3.96598715
  H        4.29510430      8.16157001      5.07134909
  H        4.24996077      6.39869744      4.98130805



