%Mem=256MB 
%NProc=12 

#P HF/6-31G* SCF(Conver=6) NoSymm Test 
   Pop=mk IOp(6/33=2) GFInput GFPrint 

MEP - Input generated by R.E.D.-III.x MOLECULE 

0 1 
  O       -3.74318968     -3.60175157     -4.12246119
  H       -3.89245450     -4.44412814     -3.67293979
  C        1.60041050      2.06310670      0.00000000
  C        1.32681561      0.60775768      0.47324974
  H        2.11733447      0.00000000      0.00000000
  C        0.00000000      0.00000000      0.00000000
  H       -0.83360702      0.57792374      0.42377396
  C       -0.08050249      0.05032276     -1.54832065
  H        0.69608367     -0.64619475     -1.90569619
  C        2.98321089      2.31473124      0.69615207
  H        3.71214021      1.71514730      0.13046973
  C        1.59970114      2.02712549     -1.54217610
  H        2.44531884      1.41045132     -1.87992630
  H        1.75004090      3.02311330     -1.97101433
  C       -1.43862864     -0.50797141     -2.10170551
  C        1.63909213      0.62824185      1.97793874
  H        1.91469980     -0.35982978      2.35988845
  H        0.76274904      0.95475037      2.55163000
  C        0.28429289      1.44713404     -2.10253915
  H       -0.52502851      2.15403668     -1.89157473
  H        0.36467879      1.40063053     -3.19449227
  C        2.80103226      1.65306593      2.10205063
  H        2.56424628      2.41627398      2.85267607
  H        3.72754546      1.17440035      2.43420055
  C       -0.14234458     -1.45274266      0.48219352
  H       -0.35525067     -1.47370289      1.55930098
  H        0.82239915     -1.97430194      0.36619009
  C        3.54276581      3.75600088      0.78587113
  H        2.81613281      4.34870253      1.36137320
  C        0.54525875      3.06537704      0.52168099
  H        0.73957026      4.06930570      0.12924604
  H       -0.46990046      2.79405771      0.22176956
  H        0.55038466      3.13625046      1.61361860
  C       -1.80610861     -1.81365955     -1.38253812
  C       -1.26589496     -0.82206834     -3.62052760
  H       -0.33173775     -1.38642511     -3.74938748
  H       -1.14164198      0.11465697     -4.17467944
  C       -1.20715264     -2.21691466     -0.25228753
  H       -1.50660684     -3.17048157      0.18417740
  C       -2.59580629      0.50914392     -1.91163084
  H       -2.46580024      1.38733623     -2.55189259
  H       -3.56323483      0.06824829     -2.16454404
  H       -2.65754301      0.84781044     -0.87279039
  C       -2.90037685     -2.65308668     -2.01534346
  H       -3.00363953     -3.59603641     -1.46303153
  H       -3.87109060     -2.14132423     -1.95121196
  C       -2.41276803     -1.62617755     -4.24998393
  H       -3.34965760     -1.05523182     -4.24030026
  H       -2.18708383     -1.84068089     -5.30075632
  C        4.85226513      3.82769657      1.62455147
  H        5.16256096      4.88011457      1.66752759
  H        4.59788463      3.56203537      2.65755353
  C       -2.63766822     -2.93372808     -3.50198463
  H       -1.73354758     -3.55815045     -3.59380347
  C        3.68866495      4.44861361     -0.58286887
  H        4.21744800      3.82355320     -1.30931655
  H        4.24511282      5.38729208     -0.48328892
  H        2.71476700      4.69569367     -1.01399942
  C        6.06086403      2.95271253      1.22082915
  H        6.73156833      2.90604837      2.08849906
  H        5.72681359      1.91917920      1.06503759
  C        6.89127732      3.37494349     -0.00848596
  H        6.27544664      3.31359066     -0.91317366
  H        7.69079821      2.63054463     -0.14257262
  C        7.54866646      4.77070008      0.04040842
  H        6.75605561      5.52302193      0.15884044
  C        8.26463135      5.06444994     -1.28790268
  H        7.57483171      4.99789220     -2.13708125
  H        8.70375269      6.06865663     -1.29017529
  H        9.07647756      4.34639568     -1.46162973
  C        8.52082537      4.92354578      1.22118068
  H        8.01972137      4.80732693      2.18751593
  H        8.99356085      5.91228157      1.21261341
  H        9.32029835      4.17298062      1.16702036



