%Mem=256MB 
%NProc=12 

#P HF/6-31G* SCF(Conver=6) NoSymm Test 
   Pop=mk IOp(6/33=2) GFInput GFPrint 

MEP - Input generated by R.E.D.-III.x MOLECULE 

0 1 
  O        4.97069599     -0.22311726     -7.26900851
  H        5.92313963     -0.30426891     -7.12684632
  C        0.00000000      0.00000000      0.00000000
  C        1.55666274     -0.00000000      0.00000000
  H        1.84547475      1.06487462      0.00000000
  C        2.21520678     -0.60084732     -1.24883344
  H        1.96192154     -1.66810012     -1.31690575
  C        1.69880486      0.12681255     -2.51895387
  H        2.09535650      1.15349067     -2.45058620
  C       -0.24526849      0.66668344      1.39839380
  H        0.10247492      1.70100317      1.26889630
  C       -0.44311090      0.81260527     -1.23208386
  H       -0.11922882      1.85542510     -1.10695160
  H       -1.53548769      0.83195184     -1.32556090
  C        2.29412406     -0.47038662     -3.84257413
  C        1.93649763     -0.55378783      1.38533003
  H        2.93005554     -0.22549679      1.70658570
  H        1.95551303     -1.65063034      1.37119585
  C        0.15622107      0.24622531     -2.53584281
  H       -0.29171444     -0.73399211     -2.72950732
  H       -0.15393783      0.88836881     -3.36785916
  C        0.80960781     -0.02631563      2.31943487
  H        0.36168956     -0.84761295      2.88792518
  H        1.19223170      0.68492006      3.05977737
  C        3.74632824     -0.48867318     -1.16968113
  H        4.13987705     -1.21042330     -0.44156730
  H        4.02266616      0.50315490     -0.77462969
  C       -1.64150315      0.80025177      2.07206736
  H       -1.41297649      1.25634316      3.04784611
  C       -0.57504862     -1.43390977     -0.07507821
  H       -1.65615737     -1.40885615     -0.23950238
  H       -0.14021406     -2.00634435     -0.89814111
  H       -0.39520163     -2.00148139      0.84159379
  C        3.80198050     -0.71164919     -3.68412686
  C        2.08733830      0.56447922     -4.99239943
  H        2.40767111      1.55030432     -4.62739546
  H        1.01897478      0.64935209     -5.21899840
  C        4.42224758     -0.69745515     -2.49505770
  H        5.50161801     -0.85147073     -2.46892755
  C        1.61091158     -1.81098915     -4.22375801
  H        0.56861075     -1.65823755     -4.52088440
  H        2.11637173     -2.29437281     -5.06344691
  H        1.62943487     -2.51601465     -3.38693736
  C        4.58540311     -0.97104092     -4.95749711
  H        5.65539647     -1.03697614     -4.72167753
  H        4.29965179     -1.93483013     -5.40213072
  C        2.84899192      0.25310176     -6.28906713
  H        2.48559804     -0.67382049     -6.75007778
  H        2.68475356      1.05233717     -7.02072664
  C       -2.61587307      1.76370734      1.35131186
  H       -2.86540472      1.35107164      0.36552072
  H       -3.55933027      1.75693054      1.91390826
  C        4.34169281      0.10626517     -6.02430676
  H        4.73608019      1.06838225     -5.65747622
  C       -2.38783335     -0.51030722      2.39460843
  H       -2.85188451     -0.94941473      1.50671134
  H       -3.19157108     -0.30768379      3.11168666
  H       -1.73840043     -1.26841049      2.84192304
  C       -2.16367287      3.22570782      1.16860366
  H       -1.28913426      3.26445044      0.50846782
  H       -2.95673747      3.75781586      0.62766301
  C       -1.82226277      3.99544194      2.45909667
  H       -1.50118290      5.00976352      2.17907790
  H       -0.95014366      3.53078585      2.93879958
  C       -2.94600196      4.11916994      3.50976168
  H       -3.25728285      3.10595473      3.80265347
  C       -4.18233305      4.85148644      2.96417276
  H       -4.63011485      4.32925474      2.11256090
  H       -4.95442455      4.94438737      3.73640461
  H       -3.91961015      5.86493263      2.63372513
  C       -2.41788383      4.82033476      4.77172114
  H       -1.55808592      4.28812374      5.19479288
  H       -3.19011021      4.88000934      5.54716372
  H       -2.09585463      5.84464650      4.54390655



