%Mem=256MB 
%NProc=12 

#P HF/6-31G* SCF(Conver=6) NoSymm Test 
   Pop=mk IOp(6/33=2) GFInput GFPrint 

MEP - Input generated by R.E.D.-III.x MOLECULE 

0 1 
  O       -3.73676079     -3.60930500     -4.12215468
  H       -3.88408968     -4.45190568     -3.67242147
  C        1.60062184      2.06410589      0.00000000
  C        1.32721628      0.60846569      0.47213566
  H        2.11809970      0.00000000     -0.00000000
  C        0.00000000      0.00000000      0.00000000
  H       -0.83378806      0.57665361      0.42506964
  C       -0.08305244      0.05220082     -1.54794586
  H        0.69568054     -0.64050822     -1.90804856
  C        2.98717629      2.31885796      0.68743415
  H        3.72690832      1.74726069      0.10424744
  C        1.59280517      2.03102610     -1.54247138
  H        2.43704468      1.41470020     -1.88427506
  H        1.74245507      3.02726740     -1.97065978
  C       -1.43991385     -0.50981515     -2.10094738
  C        1.64012712      0.63284965      1.97550199
  H        1.88869374     -0.35811877      2.36829707
  H        0.77355671      0.99015301      2.54554333
  C        0.27566697      1.45174296     -2.09885601
  H       -0.53411247      2.15612384     -1.88074530
  H        0.35061312      1.40987494     -3.19137703
  C        2.83141191      1.62390550      2.08502483
  H        2.65000837      2.37189808      2.86590845
  H        3.74985958      1.10123570      2.36807280
  C       -0.14008648     -1.45313890      0.48184862
  H       -0.35309599     -1.47455702      1.55894080
  H        0.82547175     -1.97323443      0.36597823
  C        3.52973874      3.76616048      0.80626167
  H        2.83152115      4.32405027      1.44762990
  C        0.54691147      3.06348920      0.53129786
  H        0.73092973      4.06733435      0.13481114
  H       -0.47022399      2.78558672      0.24454787
  H        0.56532476      3.13725649      1.62290064
  C       -1.80414789     -1.81653839     -1.38211369
  C       -1.26639341     -0.82347204     -3.61986792
  H       -0.33106372     -1.38584800     -3.74868580
  H       -1.14415701      0.11351983     -4.17402208
  C       -1.20360394     -2.21911127     -0.25249527
  H       -1.50075250     -3.17355013      0.18364728
  C       -2.59959311      0.50432576     -1.91080572
  H       -2.47091488      1.38347808     -2.54999349
  H       -3.56572268      0.06138106     -2.16502239
  H       -2.66301920      0.84168424     -0.87161761
  C       -2.89665337     -2.65838214     -2.01491753
  H       -2.99782181     -3.60155581     -1.46258474
  H       -3.86852230     -2.14882735     -1.95090124
  C       -2.41139778     -1.63026635     -4.24937826
  H       -3.34965182     -1.06164088     -4.23962421
  H       -2.18521505     -1.84412445     -5.30017716
  C        4.92235607      3.78352682      1.50862246
  H        5.11722273      2.81288460      1.97620578
  H        5.70542381      3.90598389      0.74661397
  C       -2.63305867     -2.93841885     -3.50149583
  H       -1.72730351     -3.56048507     -3.59313983
  C        3.61662478      4.49849783     -0.54584464
  H        4.19622558      3.91170833     -1.26928120
  H        4.11708844      5.46483964     -0.43309133
  H        2.63338146      4.69004131     -0.98288923
  C        5.10288119      4.85902901      2.59771061
  H        4.33817657      4.70136755      3.36982641
  H        6.07145250      4.69021085      3.09035199
  C        5.05643888      6.31446484      2.10805143
  H        4.06324352      6.54287255      1.69532467
  H        5.76707443      6.42616352      1.27638745
  C        5.39449401      7.37204418      3.17957222
  H        6.37262690      7.10696899      3.61027561
  C        4.36850370      7.40199499      4.32419088
  H        4.30926828      6.44478739      4.85167734
  H        4.62843098      8.16941392      5.06219346
  H        3.36654846      7.63623366      3.94120869
  C        5.52645408      8.76379038      2.54083730
  H        6.28634350      8.77113567      1.75097406
  H        5.80779021      9.51806935      3.28456154
  H        4.57593390      9.07937678      2.09167131



