%Mem=256MB 
%NProc=12 

#P HF/6-31G* SCF(Conver=6) NoSymm Test 
   Pop=mk IOp(6/33=2) GFInput GFPrint 

MEP - Input generated by R.E.D.-III.x MOLECULE 

0 1 
  O        0.42450920     -3.39592195      7.24813061
  H        0.26119305     -4.33690387      7.10039386
  C        1.50718239      1.50168084      0.00000000
  C        1.10386932      0.00000000     -0.00000000
  H        0.00000000      0.00000000      0.00000000
  C        1.51711076     -0.79477648      1.24589883
  H        2.61402285     -0.81248451      1.31619141
  C        0.93678467     -0.12072019      2.51636860
  H       -0.15630182     -0.24557386      2.44238898
  C        0.95093432      1.93299167     -1.40239546
  H       -0.14410852      1.98430901     -1.29179401
  C        0.82942082      2.13182906      1.23489988
  H       -0.26075463      2.08889026      1.09676190
  H        1.08644525      3.19004087      1.34483731
  C        1.35908049     -0.85283570      3.83847980
  C        1.53546625     -0.51066788     -1.38228810
  H        0.97374553     -1.39624142     -1.69584485
  H        2.59517665     -0.79467611     -1.37693226
  C        1.21175005      1.40059273      2.53846847
  H        2.27223869      1.58356410      2.74190697
  H        0.66327707      1.86270593      3.36709022
  C        1.28588849      0.70465480     -2.31677598
  H        2.17203177      0.91467644     -2.92756142
  H        0.46971743      0.50428086     -3.01726518
  C        1.02812620     -2.24951384      1.15665264
  H        1.63451869     -2.80754826      0.43082970
  H        0.00188760     -2.26795408      0.75329776
  C        1.39802374      3.27983722     -2.02976878
  H        2.48237276      3.22033280     -2.20147556
  C        3.03902652      1.70348937      0.05356148
  H        3.28665635      2.76897078      0.10442086
  H        3.49109530      1.22567828      0.92620461
  H        3.53741061      1.29621595     -0.83144468
  C        1.21231133     -2.37192052      3.67212618
  C        0.40560112     -0.39591426      4.98636563
  H       -0.62767944     -0.45413048      4.61672075
  H        0.59338660      0.65807210      5.21840832
  C        1.05049612     -2.96251797      2.47888883
  H        0.92729223     -4.04567685      2.44641603
  C        2.82760441     -0.53295145      4.22657774
  H        2.94238189      0.51178665      4.53221805
  H        3.16535015     -1.15057618      5.06247746
  H        3.50749859     -0.72268956      3.39024622
  C        1.25704235     -3.20187478      4.94171395
  H        1.04995327     -4.25226839      4.69952435
  H        2.25952322     -3.17296969      5.39170280
  C        0.50842062     -1.21791850      6.27938711
  H        1.49566447     -1.10434333      6.74435595
  H       -0.22545634     -0.85962603      7.01022496
  C        0.70973235      3.46943733     -3.40610748
  H        0.88334619      2.57919827     -4.01978524
  H       -0.37747768      3.51072556     -3.24168763
  C        0.27193858     -2.69751783      6.00619899
  H       -0.75709015     -2.83229395      5.63377182
  C        1.12851199      4.49241294     -1.12245897
  H        0.06511210      4.55838490     -0.85945483
  H        1.40470116      5.42822994     -1.61742922
  H        1.69918677      4.44534711     -0.19265895
  C        1.11709676      4.71133003     -4.22439123
  H        0.52520667      4.71209053     -5.14863271
  H        0.81846317      5.62287966     -3.69250756
  C        2.61231976      4.82954234     -4.57609179
  H        3.19491042      4.93188910     -3.65044348
  H        2.76302174      5.76954511     -5.12748173
  C        3.22031146      3.68093196     -5.40879655
  H        3.08093311      2.74176200     -4.85412777
  C        4.73305965      3.89312631     -5.58090570
  H        5.23919339      3.96840407     -4.61152281
  H        5.19114093      3.06598848     -6.13522793
  H        4.93736928      4.81811533     -6.13537354
  C        2.53950962      3.52313949     -6.77780321
  H        1.47413783      3.28875323     -6.68534530
  H        3.00500323      2.71649611     -7.35552847
  H        2.62848444      4.44638223     -7.36515658



