%Mem=256MB 
%NProc=12 

#P HF/6-31G* SCF(Conver=6) NoSymm Test 
   Pop=mk IOp(6/33=2) GFInput GFPrint 

MEP - Input generated by R.E.D.-III.x MOLECULE 

0 1 
  O        4.98858037     -0.24007493     -7.25918717
  H        5.94027321     -0.32517762     -7.11432158
  C        0.00000000      0.00000000      0.00000000
  C        1.55462545     -0.00000000      0.00000000
  H        1.84038708      1.06611212      0.00000000
  C        2.21301181     -0.60376353     -1.24730565
  H        1.94770081     -1.66833717     -1.31639914
  C        1.70873957      0.13032551     -2.51739724
  H        2.11531865      1.15288498     -2.44664721
  C       -0.26699347      0.64444042      1.40480979
  H       -0.00618239      1.70794331      1.29629930
  C       -0.43565164      0.82133393     -1.23094292
  H       -0.10999167      1.86254174     -1.09215024
  H       -1.52503923      0.84739117     -1.33606997
  C        2.30193711     -0.47180686     -3.83951187
  C        1.93854095     -0.55096544      1.38241499
  H        2.93128286     -0.21897783      1.70238128
  H        1.96174806     -1.64778698      1.37014188
  C        0.16821554      0.26348344     -2.53663927
  H       -0.28689409     -0.71126893     -2.74145992
  H       -0.13480334      0.91554163     -3.36367359
  C        0.81245511     -0.02686758      2.31677313
  H        0.36815686     -0.85163939      2.88628449
  H        1.19860991      0.68206418      3.05580712
  C        3.74482151     -0.50578225     -1.16249682
  H        4.12979867     -1.23302290     -0.43528127
  H        4.02797861      0.48249365     -0.76331748
  C       -1.68738847      0.57862267      2.01845094
  H       -1.93917163     -0.48603299      2.13509985
  C       -0.59376594     -1.42617712     -0.05918567
  H       -1.68724410     -1.38710486     -0.10831585
  H       -0.25241447     -1.98260849     -0.93552610
  H       -0.32861448     -2.01856419      0.82180771
  C        3.80784222     -0.72284381     -3.67735437
  C        2.10322652      0.56280296     -4.99077681
  H        2.42791729      1.54737088     -4.62614679
  H        1.03576074      0.65305174     -5.21957659
  C        4.42400120     -0.71571325     -2.48608337
  H        5.50224081     -0.87691863     -2.45647797
  C        1.61128386     -1.80892793     -4.22006069
  H        0.57138771     -1.65021081     -4.52252272
  H        2.11728961     -2.29829364     -5.05597420
  H        1.62134663     -2.51160988     -3.38111329
  C        4.59360749     -0.98542220     -4.94862499
  H        5.66264609     -1.05616321     -4.70984048
  H        4.30488171     -1.94802127     -5.39397798
  C        2.86620652      0.24570535     -6.28516290
  H        2.49954951     -0.68049348     -6.74511205
  H        2.70742450      1.04433171     -7.01868309
  C       -1.72965546      1.14777794      3.46675658
  H       -2.75639308      1.03404072      3.83903041
  H       -1.12173093      0.48910012      4.09838137
  C        4.35753964      0.09255989     -6.01638151
  H        4.75502217      1.05314355     -5.64888348
  C       -2.77811190      1.19191471      1.11920489
  H       -2.50716718      2.19018101      0.76130600
  H       -3.72446197      1.27886415      1.66466708
  H       -2.96926189      0.57153555      0.23943747
  C       -1.24614400      2.59236422      3.72883909
  H       -1.05636457      2.68026178      4.80639682
  H       -0.26724718      2.74062423      3.25573040
  C       -2.16177503      3.75853474      3.30369562
  H       -2.27136112      3.76784015      2.21311058
  H       -1.64643620      4.69712539      3.55828555
  C       -3.56920862      3.80585434      3.93581838
  H       -4.09794605      2.87841131      3.67403138
  C       -4.37455744      4.97478927      3.34564088
  H       -4.44935563      4.89824886      2.25481344
  H       -5.39260852      5.00181722      3.75074001
  H       -3.89811708      5.93552371      3.57988690
  C       -3.52393815      3.90329256      5.46915926
  H       -3.03278679      3.03737109      5.92453405
  H       -4.53533812      3.96507624      5.88677578
  H       -2.97848767      4.80181226      5.78630997



