%Mem=256MB 
%NProc=12 

#P HF/6-31G* SCF(Conver=6) NoSymm Test 
   Pop=mk IOp(6/33=2) GFInput GFPrint 

MEP - Input generated by R.E.D.-III.x MOLECULE 

0 1 
  O        4.21159593      6.55546317      4.12030676
  H        4.99196165      6.90422394      3.66938142
  C        0.00000000      0.00000000      0.00000000
  C        1.34553259      0.61952932     -0.47229271
  H        2.12765923      0.00000000      0.00000000
  C        1.61359038      2.05473330      0.00000000
  H        0.85024771      2.72318694     -0.42299346
  C        1.54645412      2.12136341      1.54803053
  H        2.40912446      1.53485657      1.90548399
  C        0.08878400     -1.40578647     -0.69135179
  H        0.82581246     -1.98383782     -0.11122997
  C        0.03457129      0.01394792      1.54262329
  H        0.83798690     -0.65624767      1.88141274
  H       -0.89409399     -0.37250202      1.97411644
  C        1.76180457      3.57378696      2.10189932
  C        1.39944483      0.31111702     -1.97555388
  H        2.42198010      0.30659943     -2.36604527
  H        0.84688653      1.06776905     -2.54634669
  C        0.27805163      1.43148688      2.10087240
  H       -0.60283599      2.04595030      1.88653313
  H        0.33979931      1.36644387      3.19310251
  C        0.72148642     -1.08175472     -2.08872586
  H       -0.05197375     -1.07787014     -2.86610600
  H        1.44465610     -1.85001365     -2.37814440
  C        2.98780110      2.54491564     -0.48436913
  H        2.95450999      2.75748415     -1.56122921
  H        3.72766998      1.73505791     -0.37059485
  C       -1.18113217     -2.28945934     -0.80407097
  H       -1.90647368     -1.75488083     -1.43651901
  C       -1.22706184      0.77895946     -0.52731117
  H       -2.15488381      0.35125923     -0.13330480
  H       -1.20792025      1.83173071     -0.23509370
  H       -1.29378806      0.74836135     -1.61912546
  C        2.93873970      4.24609171      1.38107137
  C        2.11164931      3.48045696      3.61993685
  H        2.88522721      2.71019804      3.74632181
  H        1.23384119      3.13309369      4.17559128
  C        3.47305429      3.76256028      0.24991493
  H        4.32533052      4.28371067     -0.18770973
  C        0.49514955      4.45146053      1.91549496
  H       -0.32472504      4.11150269      2.55603299
  H        0.68976257      5.49607848      2.17069172
  H        0.15029282      4.43201849      0.87701202
  C        3.48991113      5.51043093      2.01376459
  H        4.37866361      5.83925930      1.45980124
  H        2.75835003      6.32853197      1.95203698
  C        2.61636361      4.78690563      4.24969954
  H        1.83604621      5.55814345      4.24274819
  H        2.88149506      4.61853338      5.29966571
  C       -0.84507094     -3.62052861     -1.52192349
  H       -0.26291501     -3.40777427     -2.42575625
  H       -0.18688058     -4.21625499     -0.87061682
  C        3.82910655      5.32187442      3.49947299
  H        4.65372032      4.59535452      3.58864597
  C       -1.84945255     -2.56787852      0.55388403
  H       -1.13899705     -3.02631226      1.25340258
  H       -2.69594545     -3.25242906      0.44594307
  H       -2.23436767     -1.65786715      1.01911306
  C       -2.05546587     -4.47346742     -1.93723273
  H       -2.61842712     -4.78752994     -1.05112896
  H       -2.73710801     -3.85198629     -2.53391939
  C       -1.63945965     -5.71438205     -2.74419989
  H       -0.92680881     -6.29956077     -2.14492484
  H       -1.08549356     -5.38492377     -3.63515298
  C       -2.77686036     -6.65727688     -3.20158612
  H       -2.28847305     -7.46737118     -3.76331356
  C       -3.76319202     -5.97285094     -4.16242786
  H       -3.24103299     -5.51242551     -5.00950044
  H       -4.48030255     -6.69678833     -4.56603943
  H       -4.33966320     -5.18841584     -3.65862777
  C       -3.51754054     -7.31017419     -2.02262054
  H       -2.81939881     -7.80599897     -1.33790543
  H       -4.22810050     -8.06481391     -2.37883810
  H       -4.08716427     -6.57366964     -1.44421349



