%Mem=256MB 
%NProc=12 

#P HF/6-31G* SCF(Conver=6) NoSymm Test 
   Pop=mk IOp(6/33=2) GFInput GFPrint 

MEP - Input generated by R.E.D.-III.x MOLECULE 

0 1 
  O        4.90759121     -0.17804274     -7.29455018
  H        5.86016695     -0.27049844     -7.16040475
  C        0.00000000      0.00000000      0.00000000
  C        1.54987047      0.00000000     -0.00000000
  H        1.83833985      1.06506744      0.00000000
  C        2.19395770     -0.59676183     -1.25716402
  H        1.92368600     -1.65930925     -1.33531259
  C        1.67761511      0.15695596     -2.51447572
  H        2.09453356      1.17463916     -2.43469791
  C       -0.25950079      0.64875390      1.39542716
  H        0.07302533      1.68971785      1.27126825
  C       -0.45572702      0.84237983     -1.20446649
  H       -0.13044951      1.88169230     -1.05140820
  H       -1.55100733      0.86547457     -1.28379668
  C        2.25464003     -0.43353459     -3.84959450
  C        1.92862558     -0.54902530      1.38928082
  H        2.91533068     -0.20530044      1.71537377
  H        1.96545512     -1.64544845      1.37781527
  C        0.13549659      0.30947424     -2.52673846
  H       -0.33192567     -0.65331622     -2.75684932
  H       -0.15820865      0.98605907     -3.33705126
  C        0.78738173     -0.04119491      2.32570506
  H        0.34477862     -0.87726507      2.87438086
  H        1.16414503      0.65776627      3.07968836
  C        3.72655662     -0.50433734     -1.18911831
  H        4.11637640     -1.23953976     -0.47243818
  H        4.01722503      0.47921966     -0.78375570
  C       -1.72343925      0.74601518      1.91489626
  H       -2.36513886      0.85285714      1.02676074
  C       -0.59568274     -1.42249734     -0.09127824
  H       -1.69024230     -1.37960897     -0.08202344
  H       -0.30244849     -1.93317233     -1.01167852
  H       -0.28152219     -2.05822781      0.74132157
  C        3.76100281     -0.69459784     -3.70617691
  C        2.05007926      0.61488357     -4.98745741
  H        2.38321095      1.59371151     -4.61508385
  H        0.98099336      0.71281109     -5.20498270
  C        4.39041818     -0.70394845     -2.52189315
  H        5.46798915     -0.87132547     -2.50610457
  C        1.55399552     -1.76317340     -4.23803817
  H        0.51244812     -1.59683141     -4.53060127
  H        2.05093852     -2.24636897     -5.08288631
  H        1.56774448     -2.47447185     -3.40646675
  C        4.53164567     -0.94744748     -4.98872433
  H        5.60262008     -1.02749168     -4.76188552
  H        4.23236946     -1.90307460     -5.44204975
  C        2.79825278      0.30868091     -6.29309651
  H        2.42159167     -0.61003675     -6.75987284
  H        2.63633735      1.11665823     -7.01561349
  C       -2.23850162     -0.48075366      2.70546958
  H       -1.85259122     -1.40683075      2.26761340
  H       -1.83971609     -0.44238566      3.72937012
  C        4.29130744      0.14406834     -6.04160663
  H        4.69824497      1.09806205     -5.66736003
  C       -1.89476114      2.03082253      2.75140016
  H       -1.22564986      2.02073113      3.62094781
  H       -2.91802421      2.14389022      3.12361250
  H       -1.65896027      2.92270990      2.16026507
  C       -3.77158006     -0.58802872      2.76865317
  H       -4.19081888      0.32602338      3.20582180
  H       -4.16207900     -0.64604696      1.74358856
  C       -4.24093955     -1.80859409      3.57645251
  H       -3.82287082     -1.73935239      4.59120659
  H       -3.80380034     -2.71410665      3.13102246
  C       -5.76907022     -2.01584507      3.69507542
  H       -5.90334780     -2.92606363      4.29819564
  C       -6.43981128     -2.27299691      2.33541825
  H       -5.95130120     -3.09461557      1.79834147
  H       -7.49480381     -2.54003477      2.46548998
  H       -6.40473014     -1.38571224      1.69280350
  C       -6.46642176     -0.87004800      4.44707520
  H       -5.99671067     -0.68750488      5.42080295
  H       -7.52188313     -1.10602507      4.62471901
  H       -6.43294558      0.06656438      3.87865263



