%Mem=256MB 
%NProc=12 

#P HF/6-31G* SCF(Conver=6) NoSymm Test 
   Pop=mk IOp(6/33=2) GFInput GFPrint 

MEP - Input generated by R.E.D.-III.x MOLECULE 

0 1 
  O        5.00531573     -0.23967272     -7.25106440
  H        5.95660467     -0.32528313     -7.10389871
  C        0.00000000      0.00000000      0.00000000
  C        1.55477826     -0.00000000      0.00000000
  H        1.84131485      1.06606546      0.00000000
  C        2.21517550     -0.60565167     -1.24570711
  H        1.94941350     -1.67011087     -1.31457323
  C        1.71338235      0.12705789     -2.51719703
  H        2.11766518      1.15050028     -2.44589037
  C       -0.27331647      0.64926759      1.40208230
  H       -0.04203659      1.72076583      1.29118260
  C       -0.43312453      0.81708931     -1.23524983
  H       -0.10779975      1.85864727     -1.09836435
  H       -1.52186991      0.84414071     -1.34411178
  C        2.31024853     -0.47405296     -3.83821842
  C        1.93518519     -0.54944231      1.38247004
  H        2.93692455     -0.23887211      1.69575337
  H        1.93188022     -1.64653658      1.37767187
  C        0.17285471      0.25638004     -2.53860554
  H       -0.27952699     -0.72034329     -2.74067566
  H       -0.13141049      0.90514384     -3.36778578
  C        0.82783216      0.01011373      2.31691755
  H        0.39615829     -0.78796955      2.93278729
  H        1.23546672      0.74935612      3.01284548
  C        3.74690037     -0.50859972     -1.15768309
  H        4.12990560     -1.23657969     -0.43017075
  H        4.02993463      0.47917542     -0.75717196
  C       -1.69019839      0.56200989      2.02746239
  H       -1.91279115     -0.50116623      2.20633268
  C       -0.59135005     -1.42759340     -0.05290077
  H       -1.68441550     -1.39139666     -0.10694142
  H       -0.24405497     -1.98924041     -0.92354558
  H       -0.32963044     -2.01280964      0.83393186
  C        3.81564608     -0.72524470     -3.67256152
  C        2.11468613      0.56193761     -4.98887801
  H        2.43883397      1.54597172     -4.62240999
  H        1.04781049      0.65270905     -5.22017675
  C        4.42898778     -0.71822699     -2.47984607
  H        5.50716278     -0.87947119     -2.44777146
  C        1.62041458     -1.81056182     -4.22207549
  H        0.58084172     -1.65132048     -4.52536777
  H        2.12756231     -2.29809729     -5.05833923
  H        1.62968508     -2.51483301     -3.38442024
  C        4.60424711     -0.98728640     -4.94224123
  H        5.67269385     -1.05893117     -4.70105099
  H        4.31588302     -1.94927033     -5.38913583
  C        2.88075081      0.24609902     -6.28175720
  H        2.51488025     -0.67932242     -6.74379999
  H        2.72415990      1.04570757     -7.01468093
  C       -1.71169481      1.26985035      3.40532091
  H       -0.84854825      0.94091059      3.99511970
  H       -1.57732063      2.35135925      3.24852337
  C        4.37134442      0.09194444     -6.00945833
  H        4.76839257      1.05192422     -5.63991284
  C       -2.79202120      1.13124079      1.11632216
  H       -2.57234294      2.16974230      0.83794993
  H       -3.76457285      1.12160417      1.61718170
  H       -2.90384366      0.55616531      0.19463726
  C       -2.97289664      1.03249123      4.25271148
  H       -3.85441595      1.43146082      3.73842680
  H       -3.13388909     -0.04983681      4.35046728
  C       -2.86221899      1.67160080      5.64677702
  H       -2.66071675      2.74584078      5.52495408
  H       -1.98087497      1.25498669      6.15558370
  C       -4.08331302      1.51064562      6.58216776
  H       -3.81282507      2.01818542      7.52001271
  C       -4.37227352      0.04127025      6.93136873
  H       -3.47959649     -0.45839219      7.32588107
  H       -5.15873017     -0.03157002      7.69124748
  H       -4.71161763     -0.52313776      6.05514956
  C       -5.34262024      2.20740791      6.04040165
  H       -5.14402610      3.25770816      5.79645664
  H       -6.15003996      2.18384594      6.78120127
  H       -5.71780377      1.71856238      5.13390774



