%Mem=256MB 
%NProc=12 

#P HF/6-31G* SCF(Conver=6) NoSymm Test 
   Pop=mk IOp(6/33=2) GFInput GFPrint 

MEP - Input generated by R.E.D.-III.x MOLECULE 

0 1 
  O        4.19595688      6.54827627      4.13635813
  H        4.98052543      6.89447623      3.69077140
  C        0.00000000      0.00000000      0.00000000
  C        1.34813488      0.61729591     -0.47369917
  H        2.13043204      0.00000000      0.00000000
  C        1.61820735      2.05136008      0.00000000
  H        0.86472721      2.72557017     -0.43070631
  C        1.53611592      2.11920548      1.54860607
  H        2.39382948      1.53030130      1.91402325
  C        0.12072354     -1.40652625     -0.68270860
  H        0.93701844     -1.90174922     -0.13926874
  C        0.02350646      0.01450458      1.54087540
  H        0.82448170     -0.65159728      1.89145523
  H       -0.91337792     -0.37373192      1.95778034
  C        1.75232274      3.57164127      2.10246427
  C        1.40043246      0.30468459     -1.98007127
  H        2.42491309      0.27977865     -2.36474331
  H        0.86651857      1.07304309     -2.55298768
  C        0.26108098      1.43427854      2.09575463
  H       -0.61759482      2.04809148      1.87166513
  H        0.31573546      1.37502181      3.18862299
  C        0.69116784     -1.07494527     -2.09909736
  H       -0.10444090     -1.03762608     -2.84994627
  H        1.38080276     -1.86208759     -2.42338236
  C        2.99984246      2.53391502     -0.47052868
  H        2.97887780      2.74321727     -1.54835319
  H        3.73529580      1.72163023     -0.34616073
  C       -1.02377615     -2.46043679     -0.72114860
  H       -0.59149433     -3.28785993     -1.30792500
  C       -1.21572778      0.80212469     -0.52008671
  H       -2.13915224      0.45189436     -0.04977153
  H       -1.12819852      1.86840083     -0.29729137
  H       -1.34226771      0.70896495     -1.60182139
  C        2.93743474      4.23922846      1.39041770
  C        2.09014016      3.47925810      3.62341582
  H        2.85996919      2.70641921      3.75678800
  H        1.20691518      3.13589156      4.17292801
  C        3.48120982      3.75194653      0.26539540
  H        4.33888699      4.27005545     -0.16518266
  C        0.49018763      4.45329054      1.90513487
  H       -0.33614734      4.11621844      2.53883897
  H        0.68613544      5.49730848      2.16173466
  H        0.15387721      4.43476154      0.86386177
  C        3.48677655      5.50314572      2.02550652
  H        4.38051023      5.82901693      1.47787934
  H        2.75775758      6.32299757      1.95734633
  C        2.59454144      4.78472185      4.25558764
  H        1.81681852      5.55851326      4.24244080
  H        2.85144985      4.61630501      5.30759292
  C       -1.39335629     -3.06522851      0.65435515
  H       -1.79429401     -2.28038886      1.30934497
  H       -2.22505782     -3.76575717      0.49124674
  C        3.81441446      5.31525360      3.51386511
  H        4.63616983      4.58635038      3.60979141
  C       -2.31800338     -2.05552796     -1.45584471
  H       -2.94483272     -1.39434298     -0.85054364
  H       -2.91077155     -2.95096272     -1.67477752
  H       -2.12564175     -1.55325934     -2.40828949
  C       -0.27444827     -3.82336332      1.38576831
  H        0.15424502     -4.56713713      0.70016823
  H        0.53859879     -3.13609595      1.64461370
  C       -0.78244323     -4.51860896      2.65964090
  H       -1.60067919     -5.20010862      2.38530243
  H       -1.22962206     -3.76002496      3.31839339
  C        0.25994115     -5.31685737      3.47697888
  H       -0.28673144     -5.73465816      4.33537292
  C        1.37775166     -4.42658617      4.04492662
  H        0.96695066     -3.58247822      4.61130224
  H        2.02568561     -4.99751807      4.71981337
  H        2.01326437     -4.01889868      3.25030751
  C        0.84422020     -6.50391228      2.69326577
  H        0.05153565     -7.14716018      2.29328118
  H        1.48121131     -7.12071402      3.33749224
  H        1.45978534     -6.16844298      1.85063382



