%Mem=256MB 
%NProc=12 

#P HF/6-31G* SCF(Conver=6) NoSymm Test 
   Pop=mk IOp(6/33=2) GFInput GFPrint 

MEP - Input generated by R.E.D.-III.x MOLECULE 

0 1 
  O       -3.71974913     -3.59482567     -4.15022918
  H       -3.87378869     -4.43661568     -3.70122565
  C        1.58529976      2.05804725      0.00000000
  C        1.32524957      0.60643644      0.47693889
  H        2.11417621      0.00000000      0.00000000
  C        0.00000000      0.00000000      0.00000000
  H       -0.83635675      0.57701081      0.41916911
  C       -0.06817327      0.05300817     -1.55173779
  H        0.70869578     -0.64737883     -1.90073105
  C        2.96823211      2.31076046      0.67753997
  H        3.65840016      1.65507603      0.12677584
  C        1.60888417      2.03456723     -1.53851361
  H        2.46291870      1.42553122     -1.86871638
  H        1.76401194      3.04084838     -1.95061198
  C       -1.42380765     -0.50386006     -2.11429207
  C        1.65597026      0.63698199      1.98173118
  H        1.95269983     -0.34614127      2.36049984
  H        0.78138832      0.94840384      2.56634361
  C        0.30483282      1.44664393     -2.11800684
  H       -0.51017230      2.15389903     -1.93375001
  H        0.40548249      1.38324236     -3.20725354
  C        2.80553793      1.68652725      2.09938856
  H        2.55254172      2.44717599      2.84330646
  H        3.74026846      1.22558247      2.43514603
  C       -0.14532291     -1.45375300      0.47689102
  H       -0.36200957     -1.47676287      1.55328343
  H        0.81958345     -1.97554874      0.36332471
  C        3.59699433      3.73170298      0.59068795
  H        3.26681917      4.16384886     -0.36655164
  C        0.51127989      3.04935696      0.49977832
  H        0.73411403      4.06275199      0.14890992
  H       -0.48601073      2.79500978      0.13301563
  H        0.45204025      3.08134730      1.59136225
  C       -1.79847489     -1.80924413     -1.39763702
  C       -1.24189115     -0.81840890     -3.63216151
  H       -0.30731748     -1.38333220     -3.75539351
  H       -1.11402305      0.11814157     -4.18568165
  C       -1.20763864     -2.21490101     -0.26398762
  H       -1.51219750     -3.16808051      0.16972092
  C       -2.58123948      0.51441296     -1.93198368
  H       -2.44761198      1.39162795     -2.57280791
  H       -3.54743147      0.07366784     -2.18974115
  H       -2.64858953      0.85447598     -0.89398189
  C       -2.89048153     -2.64629241     -2.03767779
  H       -2.99984620     -3.58863102     -1.48553298
  H       -3.86039972     -2.13218659     -1.98074900
  C       -2.38555087     -1.62138611     -4.26883956
  H       -3.32171576     -1.04919152     -4.26583007
  H       -2.15300473     -1.83648191     -5.31799769
  C        3.18072889      4.72157517      1.70668572
  H        2.13445851      4.56255165      1.98056395
  H        3.76625194      4.50853245      2.61303871
  C       -2.61764254     -2.92831130     -3.52212349
  H       -1.71385241     -3.55417012     -3.60713673
  C        5.13399938      3.61595216      0.52695015
  H        5.52327804      3.11537632      1.42232354
  H        5.61680504      4.59632083      0.46116162
  H        5.45174907      3.03345151     -0.34495461
  C        3.37285440      6.19905002      1.32378718
  H        4.39625391      6.35386467      0.95956011
  H        2.71767276      6.43797946      0.47490729
  C        3.13085203      7.19453203      2.47331125
  H        3.38671839      8.20542049      2.12251225
  H        3.83887289      6.96784004      3.28360517
  C        1.70752372      7.24007550      3.06926970
  H        1.45063001      6.23278655      3.42732517
  C        0.65157226      7.65651876      2.03310653
  H        0.60182678      6.95945721      1.19043267
  H       -0.34593139      7.69776263      2.48522417
  H        0.87477366      8.65270497      1.62928445
  C        1.67127389      8.18217409      4.28334769
  H        2.39161091      7.87401921      5.04988205
  H        0.67723951      8.19967273      4.74470040
  H        1.91873046      9.21003729      3.98816050



