%Mem=256MB 
%NProc=12 

#P HF/6-31G* SCF(Conver=6) NoSymm Test 
   Pop=mk IOp(6/33=2) GFInput GFPrint 

MEP - Input generated by R.E.D.-III.x MOLECULE 

0 1 
  O       -3.74311537     -3.60556195     -4.11945250
  H       -3.89129641     -4.44799803     -3.66968592
  C        1.60087752      2.06400996      0.00000000
  C        1.32730422      0.60830292      0.47215245
  H        2.11829966      0.00000000      0.00000000
  C        0.00000000      0.00000000      0.00000000
  H       -0.83353345      0.57751361      0.42438545
  C       -0.08257172      0.05058467     -1.54798827
  H        0.69472783     -0.64428631     -1.90701564
  C        2.98609654      2.32059653      0.69068795
  H        3.72689618      1.74860533      0.10935620
  C        1.59552406      2.02830163     -1.54258797
  H        2.44043311      1.41150220     -1.88189508
  H        1.74533388      3.02344739     -1.97300642
  C       -1.44054788     -0.50900043     -2.10049699
  C        1.63943483      0.63181291      1.97545786
  H        1.89035254     -0.35897302      2.36719972
  H        0.77184428      0.98632380      2.54571861
  C        0.27923961      1.44864886     -2.10055621
  H       -0.53028670      2.15438833     -1.88593444
  H        0.35689085      1.40455122     -3.19280516
  C        2.82786929      1.62571068      2.08738356
  H        2.64053118      2.37349837      2.86729771
  H        3.74793699      1.10699279      2.37269866
  C       -0.14165834     -1.45265398      0.48278305
  H       -0.35459688     -1.47321422      1.55989826
  H        0.82322552     -1.97402905      0.36706900
  C        3.52966327      3.76870202      0.80370799
  H        2.83456273      4.33817419      1.43948730
  C        0.54604048      3.06381173      0.52801350
  H        0.73272496      4.06787940      0.13310796
  H       -0.47027676      2.78715938      0.23721454
  H        0.56048236      3.13673721      1.61975391
  C       -1.80668095     -1.81476146     -1.38082715
  C       -1.26804871     -0.82359346     -3.61931476
  H       -0.33364682     -1.38747964     -3.74831561
  H       -1.14467646      0.11301040     -4.17384166
  C       -1.20637045     -2.21757069     -0.25112993
  H       -1.50476960     -3.17136778      0.18557521
  C       -2.59814404      0.50760708     -1.91060006
  H       -2.46849019      1.38545989     -2.55136807
  H       -3.56546150      0.06623274     -2.16305370
  H       -2.65978848      0.84680481     -0.87191512
  C       -2.90055591     -2.65531802     -2.01293852
  H       -3.00287703     -3.59815799     -1.46026077
  H       -3.87165808     -2.14436733     -1.94871592
  C       -2.41458672     -1.62874000     -4.24804947
  H       -3.35192422     -1.05860904     -4.23813495
  H       -2.18917348     -1.84339878     -5.29884934
  C        4.90898404      3.77725868      1.51226329
  H        4.88595183      3.08315837      2.35780508
  H        5.66482446      3.38239045      0.81546056
  C       -2.63804068     -2.93625169     -3.49955097
  H       -1.73336574     -3.55983677     -3.59139762
  C        3.62938480      4.48466070     -0.55537720
  H        4.21596146      3.89036305     -1.26706583
  H        4.11890918      5.45826020     -0.45646975
  H        2.64892387      4.66606143     -1.00139174
  C        5.36175007      5.15337143      2.02772919
  H        5.34384603      5.88338267      1.20956738
  H        4.63368175      5.51625205      2.76602071
  C        6.77814722      5.17216707      2.63262489
  H        7.03767580      6.21154660      2.88321500
  H        7.49204864      4.86175223      1.85591291
  C        7.01598328      4.30383005      3.88659897
  H        6.77883588      3.26032616      3.63462384
  C        6.12254424      4.71929225      5.06608707
  H        5.05743849      4.61784284      4.83385078
  H        6.32722283      4.10224587      5.94841973
  H        6.30531594      5.76582898      5.34297546
  C        8.49837496      4.35271739      4.29042123
  H        9.14689404      4.02255489      3.47074239
  H        8.69711270      3.70964201      5.15541741
  H        8.79674698      5.37406778      4.56008856



