%Mem=256MB 
%NProc=12 

#P HF/6-31G* SCF(Conver=6) NoSymm Test 
   Pop=mk IOp(6/33=2) GFInput GFPrint 

MEP - Input generated by R.E.D.-III.x MOLECULE 

0 1 
  O       -3.72598399     -3.58754662     -4.15080462
  H       -3.87865543     -4.43053853     -3.70358969
  C        1.58572674      2.05888618      0.00000000
  C        1.32506169      0.60684213      0.47686754
  H        2.11343528      0.00000000     -0.00000000
  C        0.00000000      0.00000000      0.00000000
  H       -0.83675662      0.57431495      0.42198839
  C       -0.07120187      0.05653984     -1.55137767
  H        0.70559344     -0.64225817     -1.90370164
  C        2.96905479      2.30700808      0.67919316
  H        3.64780864      1.62589629      0.14583493
  C        1.60663046      2.03607436     -1.53815003
  H        2.45838139      1.42505938     -1.87077249
  H        1.76301471      3.04216677     -1.95002475
  C       -1.42748584     -0.50015107     -2.11232514
  C        1.65384984      0.63794669      1.98254401
  H        1.96696376     -0.34169242      2.35715877
  H        0.77332901      0.93162794      2.56741153
  C        0.29953267      1.45194382     -2.11428068
  H       -0.51387844      2.15912008     -1.92258908
  H        0.39464523      1.39274444     -3.20424520
  C        2.78467024      1.70722079      2.10802896
  H        2.49725752      2.47641484      2.82983880
  H        3.71876123      1.27078999      2.47688791
  C       -0.14265717     -1.45511260      0.47375228
  H       -0.35696148     -1.48102497      1.55056523
  H        0.82246564     -1.97572122      0.35668910
  C        3.63820733      3.71164951      0.56029917
  H        3.31072616      4.12808995     -0.40322927
  C        0.51204568      3.04793195      0.50459657
  H        0.70840889      4.05324400      0.11804566
  H       -0.49231779      2.76966519      0.17640745
  H        0.48680614      3.11113541      1.59611599
  C       -1.79971561     -1.80745256     -1.39798457
  C       -1.24822155     -0.81137562     -3.63121816
  H       -0.31376503     -1.37587626     -3.75722305
  H       -1.12144753      0.12633638     -4.18301115
  C       -1.20599741     -2.21541419     -0.26664505
  H       -1.50883411     -3.16986442      0.16548381
  C       -2.58534374      0.51685810     -1.92568609
  H       -2.45228011      1.39669558     -2.56305219
  H       -3.55141603      0.07670264     -2.18482848
  H       -2.65270680      0.85279455     -0.88633432
  C       -2.89242194     -2.64382746     -2.03774715
  H       -2.99980634     -3.58756737     -1.48761297
  H       -3.86268694     -2.13070760     -1.97754053
  C       -2.39277841     -1.61335020     -4.26760080
  H       -3.32913100     -1.04158632     -4.26107031
  H       -2.16233032     -1.82573054     -5.31776678
  C        3.25625595      4.72290108      1.66775766
  H        2.16700611      4.76940823      1.76620188
  H        3.62712483      4.34557038      2.62983516
  C       -2.62271199     -2.92215226     -3.52355342
  H       -1.71891635     -3.54749791     -3.61212056
  C        5.17008918      3.54655239      0.47949504
  H        5.56937602      3.12685187      1.41167350
  H        5.67919885      4.49848531      0.30151944
  H        5.44879516      2.86996875     -0.33575962
  C        3.80588331      6.15672166      1.50090926
  H        3.49534101      6.73708804      2.37912955
  H        4.90150540      6.13397935      1.54626378
  C        3.39855294      6.91324511      0.22269334
  H        3.76879792      6.36820208     -0.65616826
  H        3.92472024      7.87946755      0.21508546
  C        1.89254805      7.18843735      0.02789645
  H        1.36212049      6.22574902      0.03470220
  C        1.64492949      7.84061692     -1.34192668
  H        2.02418532      7.21435709     -2.15769758
  H        0.57599431      8.00826731     -1.51654820
  H        2.14894033      8.81343628     -1.40798266
  C        1.30251936      8.05596010      1.15124323
  H        1.39016865      7.57854779      2.13245548
  H        0.23892381      8.25312999      0.97524901
  H        1.81557698      9.02510143      1.20429405



