%Mem=256MB 
%NProc=12 

#P HF/6-31G* SCF(Conver=6) NoSymm Test 
   Pop=mk IOp(6/33=2) GFInput GFPrint 

MEP - Input generated by R.E.D.-III.x MOLECULE 

0 1 
  O       -3.73551812     -3.61479798     -4.11844965
  H       -3.88637465     -4.45527811     -3.66591931
  C        1.60089288      2.06396361      0.00000000
  C        1.32712686      0.60810645      0.47231256
  H        2.11812187      0.00000000     -0.00000000
  C        0.00000000      0.00000000      0.00000000
  H       -0.83326978      0.57949312      0.42216288
  C       -0.08000986      0.04760145     -1.54818287
  H        0.69822103     -0.64764398     -1.90443633
  C        2.98548889      2.31971451      0.69263139
  H        3.72558031      1.74469187      0.11335640
  C        1.59757368      2.02624744     -1.54262206
  H        2.44353426      1.40993277     -1.88006867
  H        1.74682372      3.02076256     -1.97466409
  C       -1.43648943     -0.51371517     -2.10266063
  C        1.63904420      0.63013368      1.97570392
  H        1.89315003     -0.36065747      2.36540774
  H        0.77018139      0.98050076      2.54662833
  C        0.28234174      1.44491584     -2.10200955
  H       -0.52790823      2.15045766     -1.88941283
  H        0.36177588      1.39966929     -3.19409514
  C        2.82380823      1.62794171      2.09007953
  H        2.62929229      2.37764362      2.86643224
  H        3.74526205      1.11518699      2.38166319
  C       -0.14336509     -1.45150819      0.48562340
  H       -0.35779019     -1.46973642      1.56247324
  H        0.82137509     -1.97365855      0.37234041
  C        3.53499740      3.76567720      0.80611068
  H        2.84039847      4.34037138      1.43798188
  C        0.54613940      3.06451382      0.52617445
  H        0.73705852      4.06920041      0.13483000
  H       -0.46983548      2.79148319      0.23053834
  H        0.55655119      3.13438708      1.61816686
  C       -1.80500656     -1.81718468     -1.38019148
  C       -1.25949269     -0.83327578     -3.61994876
  H       -0.32495524     -1.39800325     -3.74417928
  H       -1.13391618      0.10146642     -4.17713620
  C       -1.20741985     -2.21742813     -0.24816964
  H       -1.50745970     -3.16981990      0.19046279
  C       -2.59483168      0.50324614     -1.91918651
  H       -2.46353586      1.37957000     -2.56174954
  H       -3.56128587      0.06110921     -2.17358891
  H       -2.65986845      0.84502466     -0.88154395
  C       -2.89789061     -2.65870287     -2.01263517
  H       -3.00259847     -3.59966982     -1.45721377
  H       -3.86873261     -2.14670083     -1.95282109
  C       -2.40447183     -1.63990515     -4.24969866
  H       -3.34144731     -1.06912164     -4.24486394
  H       -2.17574139     -1.85824065     -5.29902450
  C        4.90679589      3.76125632      1.52636478
  H        4.83000739      3.16947047      2.44612665
  H        5.63215959      3.23703769      0.88724453
  C       -2.63144049     -2.94472401     -3.49759275
  H       -1.72723158     -3.56967394     -3.58485769
  C        3.64540227      4.48311289     -0.55070493
  H        4.27146774      3.91082629     -1.24705708
  H        4.09446757      5.47441997     -0.43890694
  H        2.67072506      4.62736910     -1.02160299
  C        5.44925430      5.14895131      1.90929120
  H        5.69832676      5.72676825      1.01194463
  H        4.65032892      5.70996139      2.41483966
  C        6.66878237      5.11007265      2.84888525
  H        6.37885781      4.59549796      3.77649810
  H        6.92135507      6.14050651      3.14016248
  C        7.94564836      4.43884910      2.29937581
  H        7.69833201      3.40382145      2.02302493
  C        9.02504090      4.37803589      3.39207422
  H        8.66620749      3.84306996      4.27893647
  H        9.92624200      3.86732144      3.03392434
  H        9.31858674      5.38733937      3.70836709
  C        8.48700762      5.14493573      1.04614265
  H        7.76716232      5.13287159      0.22131705
  H        9.40366462      4.66120056      0.68992563
  H        8.72800764      6.19371125      1.26366352



