%Mem=256MB 
%NProc=12 

#P HF/6-31G* SCF(Conver=6) NoSymm Test 
   Pop=mk IOp(6/33=2) GFInput GFPrint 

MEP - Input generated by R.E.D.-III.x MOLECULE 

0 1 
  O        0.44101402     -3.39525360      7.25060235
  H        0.27971592     -4.33666066      7.10334897
  C        1.50762767      1.50151048     -0.00000000
  C        1.10387846      0.00000000      0.00000000
  H        0.00000000      0.00000000      0.00000000
  C        1.51776338     -0.79430912      1.24575779
  H        2.61471405     -0.81212476      1.31471445
  C        0.93890433     -0.12009342      2.51693525
  H       -0.15417211     -0.24632090      2.44499428
  C        0.95272388      1.93327437     -1.40282417
  H       -0.14221784      1.98731789     -1.29270160
  C        0.82919276      2.13200915      1.23422619
  H       -0.26088860      2.08794001      1.09586169
  H        1.08524930      3.19054908      1.34342991
  C        1.36444196     -0.85167565      3.83839876
  C        1.53575717     -0.51080469     -1.38221610
  H        0.97461260     -1.39683780     -1.69553392
  H        2.59564206     -0.79408783     -1.37684933
  C        1.21204720      1.40156629      2.53828439
  H        2.27227297      1.58596413      2.74177959
  H        0.66293401      1.86335424      3.36667638
  C        1.28540726      0.70401523     -2.31704411
  H        2.16995669      0.91339157     -2.93051515
  H        0.46741305      0.50308699     -3.01527773
  C        1.02866138     -2.24906316      1.15784089
  H        1.63300732     -2.80707498      0.43030597
  H        0.00124963     -2.26753439      0.75748763
  C        1.40408098      3.27839791     -2.02937107
  H        2.48874799      3.21854874     -2.20802656
  C        3.03973986      1.70183743      0.05445556
  H        3.28895639      2.76687257      0.10530215
  H        3.49084685      1.22355381      0.92732347
  H        3.53799712      1.29401775     -0.83033888
  C        1.21957245     -2.37100631      3.67273951
  C        0.41237135     -0.39596685      4.98796416
  H       -0.62153237     -0.45604703      4.62034565
  H        0.59891669      0.65835834      5.21941894
  C        1.05523248     -2.96202308      2.48006437
  H        0.93325655     -4.04533825      2.44809721
  C        2.83319114     -0.52947960      4.22388407
  H        2.94692451      0.51567718      4.52848266
  H        3.17329948     -1.14581534      5.05976552
  H        3.51204934     -0.71888602      3.38661350
  C        1.26851301     -3.20041700      4.94247002
  H        1.06283244     -4.25127114      4.70106535
  H        2.27182478     -3.16958944      5.39043661
  C        0.51901333     -1.21741085      6.28104979
  H        1.50691446     -1.10197741      6.74415420
  H       -0.21413665     -0.86018945      7.01314286
  C        0.72684207      3.47977790     -3.40828798
  H        0.84938139      2.56970631     -4.00730672
  H       -0.35516331      3.59575766     -3.24940465
  C        0.28465241     -2.69750201      6.00877136
  H       -0.74487836     -2.83430428      5.63847031
  C        1.13965774      4.49204840     -1.12108557
  H        0.07783795      4.55586595     -0.85119278
  H        1.41179188      5.42674861     -1.62021133
  H        1.71606859      4.44734404     -0.19463905
  C        1.26645692      4.65862471     -4.23637128
  H        1.02235650      5.61219939     -3.75444696
  H        2.36429208      4.60267080     -4.25118967
  C        0.77319831      4.68036501     -5.69507681
  H        1.09435943      3.75042052     -6.18636727
  H        1.28450155      5.49640473     -6.22712673
  C       -0.74663264      4.84390593     -5.91014589
  H       -1.25784531      4.01965212     -5.39237592
  C       -1.08606035      4.72929874     -7.40494628
  H       -0.74418911      3.77426811     -7.82029966
  H       -2.16640919      4.80159564     -7.57489824
  H       -0.60505900      5.53259994     -7.97787632
  C       -1.28177716      6.16535489     -5.33602374
  H       -1.12552662      6.23985010     -4.25496018
  H       -2.35751115      6.26478590     -5.52058279
  H       -0.78363539      7.02380907     -5.80531799



