%Mem=256MB 
%NProc=12 

#P HF/6-31G* SCF(Conver=6) NoSymm Test 
   Pop=mk IOp(6/33=2) GFInput GFPrint 

MEP - Input generated by R.E.D.-III.x MOLECULE 

0 1 
  O        0.42848398     -3.38183854      7.25553270
  H        0.26725285     -4.32349947      7.10985702
  C        1.50620409      1.50151783      0.00000000
  C        1.10376941     -0.00000000      0.00000000
  H        0.00000000      0.00000000      0.00000000
  C        1.51609216     -0.79209511      1.24754712
  H        2.61292026     -0.80966734      1.31867130
  C        0.93439816     -0.11538961      2.51642404
  H       -0.15845138     -0.24251378      2.44237147
  C        0.95167445      1.92632475     -1.40427733
  H       -0.14300164      1.95008688     -1.29460280
  C        0.82604676      2.13552466      1.23066404
  H       -0.26395792      2.09245415      1.09098862
  H        1.08471547      3.19402873      1.33606792
  C        1.35756620     -0.84454961      3.84008440
  C        1.53600534     -0.51328628     -1.38266205
  H        0.95885675     -1.38679932     -1.70204912
  H        2.58970748     -0.81868110     -1.37127874
  C        1.20586283      1.40687670      2.53664986
  H        2.26515521      1.59294732      2.74315317
  H        0.65382162      1.86866602      3.36308666
  C        1.31932465      0.70994823     -2.31685775
  H        2.22980035      0.92585420     -2.88819833
  H        0.53316022      0.52022663     -3.05429393
  C        1.02722189     -2.24699882      1.16149812
  H        1.63279436     -2.80623390      0.43590611
  H        0.00045902     -2.26622142      0.75949867
  C        1.38162292      3.28150718     -2.01820000
  H        2.47418510      3.24712787     -2.14333749
  C        3.03740187      1.70600543      0.05802304
  H        3.28252352      2.77251256      0.10273302
  H        3.48642033      1.23561345      0.93619319
  H        3.54061924      1.29301263     -0.82149376
  C        1.21306261     -2.36415271      3.67694862
  C        0.40331180     -0.38695392      4.98706657
  H       -0.62986296     -0.44814997      4.61759213
  H        0.58900680      0.66789337      5.21676804
  C        1.05143106     -2.95749715      2.48505642
  H        0.92970825     -4.04088517      2.45489802
  C        2.82553451     -0.52139428      4.22768610
  H        2.93841788      0.52430761      4.53068062
  H        3.16406306     -1.13639614      5.06519039
  H        3.50594254     -0.71202019      3.39196193
  C        1.25987255     -3.19121822      4.94836816
  H        1.05479601     -4.24257895      4.70866421
  H        2.26244980     -3.15919962      5.39788490
  C        0.50790948     -1.20582904      6.28193095
  H        1.49503179     -1.08932579      6.74644941
  H       -0.22650493     -0.84724411      7.01209168
  C        0.83273581      3.47089034     -3.46190664
  H        1.19755280      4.43922212     -3.83353263
  H        1.30971858      2.71596362     -4.09826335
  C        0.27415518     -2.68647001      6.01212332
  H       -0.75474338     -2.82402417      5.64032904
  C        1.08079147      4.49338203     -1.11519258
  H        0.05204273      4.48707614     -0.74176087
  H        1.22888213      5.43008255     -1.66427178
  H        1.74280822      4.51983313     -0.24530611
  C       -0.68922089      3.38998220     -3.71801091
  H       -0.81772846      3.24409478     -4.79819124
  H       -1.09747315      2.48675687     -3.24865349
  C       -1.51316684      4.61835828     -3.29218068
  H       -1.01356181      5.52388836     -3.66601963
  H       -1.51557753      4.70371307     -2.19953241
  C       -2.98481025      4.64593563     -3.77210289
  H       -3.41929290      5.56510922     -3.35186244
  C       -3.80726869      3.46710892     -3.22531083
  H       -3.72687257      3.39632286     -2.13408419
  H       -4.86830025      3.58233418     -3.47472856
  H       -3.47427189      2.51206318     -3.64791181
  C       -3.11560392      4.74859308     -5.30099749
  H       -2.53926037      5.59422622     -5.69441371
  H       -4.16221089      4.89397246     -5.59214952
  H       -2.76227161      3.84050031     -5.80285261



