%Mem=256MB 
%NProc=12 

#P HF/6-31G* SCF(Conver=6) NoSymm Test 
   Pop=mk IOp(6/33=2) GFInput GFPrint 

MEP - Input generated by R.E.D.-III.x MOLECULE 

0 1 
  C       -0.96352539      2.00379629      1.68741326
  H       -0.97911959      1.02450727      2.18136766
  C        0.38821384      2.67985491      1.96681764
  H        0.54125881      2.76509000      3.04714755
  H        0.33568759      3.70739466      1.57380886
  C        1.54866331      1.93883499      1.32852468
  C        1.42653421      1.62654393     -0.16818161
  C        0.01446946      1.01393266     -0.42246844
  H        0.00000000      0.00000000      0.00000000
  H       -0.14385821      0.90338587     -1.50068915
  C       -1.15358648      1.80728800      0.18336362
  H       -1.24169169      2.79200681     -0.29904496
  H       -2.09819547      1.28284267      0.00000000
  C        2.61168275      1.59423073      2.07173327
  H        2.62258311      1.84995197      3.12965075
  C        3.81646392      0.86256213      1.55431493
  H        4.73160704      1.29350810      1.97981775
  C        3.90215188      0.87345769      0.01723473
  H        4.21054501      1.89568109     -0.24342439
  C        2.51205486      0.58109003     -0.60656109
  H        2.19338586     -0.38316332     -0.18413689
  C        2.59646661      0.39466520     -2.14017498
  H        2.75376529      1.36302050     -2.62605597
  H        1.63611154      0.02302698     -2.51584606
  C        3.70935397     -0.56577537     -2.60706733
  H        3.48752786     -1.58471028     -2.25904143
  H        3.69643468     -0.60057634     -3.70093317
  C        5.09086727     -0.14955791     -2.06066711
  C        4.95331751     -0.11371767     -0.51287116
  H        4.60390044     -1.11649387     -0.23080595
  C        6.39477435     -0.00000000     -0.00000000
  H        6.49572604     -0.36978257      1.02414949
  H        6.72977412      1.04514013     -0.00004817
  C        7.20828962     -0.84617197     -1.01729818
  H        8.07693993     -0.28772292     -1.38646547
  H        7.60088150     -1.75206976     -0.54648364
  C        6.24543079     -1.20316174     -2.20193949
  H        5.79064459     -2.18279766     -1.98528862
  C        5.53233653      1.20881510     -2.65239606
  H        4.85077969      2.02191429     -2.38905136
  H        6.52892795      1.49968065     -2.30674463
  H        5.56862314      1.16220220     -3.74576648
  C        6.99047514     -1.34599631     -3.55462906
  H        7.50935169     -0.39570640     -3.75338665
  C        6.04746902     -1.63147580     -4.73746620
  H        5.41751503     -2.50587982     -4.53170885
  H        6.60988407     -1.83830487     -5.65302398
  H        5.38721136     -0.78858877     -4.95428310
  C        1.56562956      2.95907002     -0.95461709
  H        1.29043484      2.83126199     -2.00569099
  H        0.91872921      3.73908736     -0.54615428
  H        2.59135969      3.33833438     -0.91290843
  O        3.79255682     -0.53392765      1.95995681
  O        3.96435285     -0.57685771      3.40431495
  H        3.07209000     -0.83600039      3.68835203
  O       -2.04689891      2.71597559      2.29035261
  H       -2.11016827      3.58993813      1.88005255
  C        8.07637258     -2.44901599     -3.46140808
  H        8.59628670     -2.36443496     -2.50244612
  H        7.57944384     -3.43168909     -3.45188422
  C        9.12521115     -2.41986194     -4.58540446
  H        8.62755106     -2.44940455     -5.56224039
  H        9.65871946     -1.46009386     -4.55238828
  C       10.13338055     -3.58368770     -4.54538557
  H       10.77547368     -3.52110279     -5.43663146
  H        9.57791077     -4.52810832     -4.63925696
  C       11.04580001     -3.67759274     -3.30371943
  H       10.40853403     -3.76220220     -2.41195281
  C       11.90646984     -4.94925019     -3.37475746
  H       12.57270896     -4.92237324     -4.24673995
  H       12.53270537     -5.05682398     -2.48174331
  H       11.28491874     -5.84816337     -3.45891138
  C       11.93396223     -2.43500655     -3.13299406
  H       12.57689891     -2.29247009     -4.01146046
  H       12.58585198     -2.53723639     -2.25795568
  H       11.34556300     -1.52143426     -2.99951872



