%Mem=256MB 
%NProc=12 

#P HF/6-31G* SCF(Conver=6) NoSymm Test 
   Pop=mk IOp(6/33=2) GFInput GFPrint 

MEP - Input generated by R.E.D.-III.x MOLECULE 

0 1 
  C        7.51805300      2.14931214     -0.06183304
  H        7.42068714      2.06377387      1.02740027
  C        6.76140660      0.98538723     -0.72128451
  H        7.15321376      0.03345075     -0.34967343
  H        6.97718240      1.01502175     -1.80092022
  C        5.26364581      1.06333522     -0.48927349
  C        4.57997196      2.39019512     -0.84298111
  C        5.41941369      3.54912221     -0.22144133
  H        5.27614126      3.52984141      0.86753048
  H        5.02463415      4.50967028     -0.56960733
  C        6.92671882      3.48492551     -0.51264798
  H        7.11721822      3.61702890     -1.58801889
  H        7.44281272      4.30455520      0.00000000
  C        4.60711428     -0.00000000      0.00000000
  H        5.16470938     -0.90628671      0.22897807
  C        3.13035784     -0.04482377      0.26769141
  H        2.71711138     -1.00904692     -0.05446969
  C        2.36879388      1.10238637     -0.42065515
  H        2.35314567      0.83148462     -1.48550834
  C        3.13047872      2.44363135     -0.24296831
  H        3.25558868      2.57277743      0.84215727
  C        2.30570721      3.65381392     -0.74604852
  H        2.28494114      3.66459179     -1.84038844
  H        2.80346433      4.58296148     -0.44553678
  C        0.85159092      3.68757846     -0.23292835
  H        0.85124386      3.83588933      0.85576316
  H        0.34698628      4.55745083     -0.66985352
  C        0.10413174      2.38035789     -0.55923531
  C        0.92436679      1.22633472      0.08699943
  H        0.99798682      1.48346519      1.15204397
  C        0.00000000      0.00000000      0.00000000
  H        0.23588731     -0.74226485      0.76768844
  H        0.10163686     -0.49856076     -0.97246905
  C       -1.42506340      0.60040061      0.17049582
  H       -2.08089365      0.28175373     -0.64613247
  H       -1.90157396      0.26083015      1.09650767
  C       -1.25663963      2.15356890      0.18793278
  H       -1.03866867      2.41971561      1.23126871
  C       -0.03357958      2.21066519     -2.08996213
  H        0.93233743      2.04749104     -2.57503895
  H       -0.67276246      1.36496801     -2.35601892
  H       -0.46857102      3.10690869     -2.54170080
  C       -2.57490455      2.90914847     -0.14684804
  H       -3.31179318      2.44984296      0.53007198
  C       -3.14638370      2.71965928     -1.56681558
  H       -2.61112604      3.31803694     -2.30993607
  H       -4.19350710      3.04273124     -1.58685545
  H       -3.12291978      1.67702626     -1.89692494
  C        4.56352890      2.53063168     -2.39000782
  H        4.26954033      3.53939622     -2.69465025
  H        5.54769186      2.33850421     -2.82390763
  H        3.86749834      1.81924215     -2.84521314
  O        2.85437423      0.06536131      1.69140792
  O        3.35106289     -1.14338527      2.33162041
  H        4.12529492     -0.79640898      2.80504795
  O        8.92644171      2.06505754     -0.29381950
  H        9.09084166      2.16009446     -1.24255820
  C       -2.55400456      4.42166018      0.18381316
  H       -1.82254256      4.92138324     -0.46415408
  H       -3.52850048      4.83491862     -0.10985056
  C       -2.26960331      4.82465895      1.64395339
  H       -1.25307610      4.52205574      1.92182291
  H       -2.26873272      5.92103578      1.69637922
  C       -3.24007898      4.26464992      2.70177683
  H       -2.90856293      4.61420619      3.69079185
  H       -3.15319557      3.17014427      2.73067342
  C       -4.73061353      4.62969989      2.53673135
  H       -5.06821775      4.26621355      1.55527917
  C       -5.57340907      3.91548245      3.60567519
  H       -5.28627140      4.24322637      4.61310520
  H       -6.64107792      4.12834368      3.47910425
  H       -5.44018928      2.82850148      3.55953588
  C       -4.97276528      6.14677663      2.58481467
  H       -4.62909499      6.56521035      3.53985357
  H       -6.04009065      6.37589951      2.48753465
  H       -4.44847246      6.67505877      1.78195941



