%Mem=256MB 
%NProc=12 

#P HF/6-31G* SCF(Conver=6) NoSymm Test 
   Pop=mk IOp(6/33=2) GFInput GFPrint 

MEP - Input generated by R.E.D.-III.x MOLECULE 

0 1 
  C        1.01416191     -0.88546526     -1.68583368
  H        1.14513316      0.08426606     -2.18153776
  C        2.24965347     -1.75651993     -1.96357304
  H        2.38855938     -1.86542708     -3.04368333
  H        2.04398849     -2.76404175     -1.56898755
  C        3.50776311     -1.19636163     -1.32593474
  C        3.43365052     -0.86726858      0.17029083
  C        2.12897129     -0.05007284      0.42331085
  H        2.26658067      0.95420821      0.00000000
  H        1.98860225      0.08391520      1.50134185
  C        0.85542706     -0.66030118     -0.18217906
  H        0.62062038     -1.62001592      0.30153500
  H        0.00000000      0.00000000      0.00000000
  C        4.61044242     -1.01573787     -2.06930457
  H        4.58302079     -1.27173477     -3.12685979
  C        5.91116283     -0.47188332     -1.55259166
  H        6.75155611     -1.03571530     -1.97691624
  C        5.99400537     -0.49297823     -0.01549207
  H        6.14605820     -1.54944826      0.24680055
  C        4.66309994      0.00499534      0.60722189
  H        4.49214687      1.00516061      0.18268298
  C        4.77420183      0.18014177      2.14052194
  H        4.78431990     -0.79973478      2.62865198
  H        3.88046974      0.69266825      2.51481243
  C        6.01857818      0.96362325      2.60587224
  H        5.95244785      2.00348732      2.25541352
  H        6.00998131      1.00269870      3.69956737
  C        7.32228667      0.34346982      2.06143215
  C        7.18076935      0.32698711      0.51349883
  H        6.98433961      1.37038567      0.23077604
  C        8.58895987      0.00000000      0.00000000
  H        8.74330863      0.35143729     -1.02394493
  H        8.76445726     -1.08343021     -0.00091298
  C        9.52012061      0.71417768      1.01755312
  H       10.29354259      0.03024059      1.38750190
  H       10.04661879      1.55035608      0.54839901
  C        8.62162946      1.21228157      2.20174540
  H        8.31847955      2.24866821      1.98409952
  C        7.55486553     -1.06479040      2.65521185
  H        6.75879420     -1.76666849      2.39340780
  H        8.49630815     -1.50238663      2.30952489
  H        7.59852915     -1.02240192      3.74851921
  C        9.38295460      1.24404775      3.55269682
  H        9.75462267      0.22726031      3.75286787
  C        8.50062863      1.66852959      4.74002528
  H        8.04086842      2.64791488      4.55630204
  H        9.08625410      1.74479363      5.66096827
  H        7.69690182      0.95473825      4.93337406
  C        3.37194802     -2.20430413      0.95888791
  H        3.11941584     -2.03494374      2.00978373
  H        2.61529804     -2.87926813      0.55189684
  H        4.32929341     -2.73300447      0.91777075
  O        6.09672907      0.91169743     -1.96074848
  O        6.27531256      0.92533790     -3.40488244
  H        5.43256775      1.31494923     -3.69111059
  O       -0.16346382     -1.42872216     -2.28794848
  H       -0.35660383     -2.28280629     -1.87636495
  C       10.62190789      2.16841116      3.44665649
  H       11.18123632      1.92109732      2.53681512
  H       10.27191250      3.20273172      3.31647247
  C       11.60031992      2.08799347      4.63095686
  H       11.13007306      2.46428401      5.54662299
  H       11.82863949      1.03013945      4.82439524
  C       12.93198142      2.82571855      4.39831895
  H       13.42546348      2.38716186      3.51890592
  H       13.59819040      2.62590174      5.25079088
  C       12.85168863      4.35441248      4.19905765
  H       12.19850901      4.55528697      3.33784326
  C       12.25765102      5.07491920      5.41982353
  H       12.86281054      4.88564391      6.31611096
  H       12.23194087      6.15886689      5.25999022
  H       11.23433798      4.75007207      5.63420361
  C       14.24151886      4.91904660      3.86390622
  H       14.94182262      4.75182276      4.69249928
  H       14.19884033      5.99836023      3.67815677
  H       14.66226420      4.44147680      2.97154901



