%Mem=256MB 
%NProc=12 

#P HF/6-31G* SCF(Conver=6) NoSymm Test 
   Pop=mk IOp(6/33=2) GFInput GFPrint 

MEP - Input generated by R.E.D.-III.x MOLECULE 

0 1 
  C        7.54142579      2.13363303     -0.14275309
  H        7.49668970      2.00857118      0.94579053
  C        6.74985260      0.99454495     -0.80581181
  H        7.15461982      0.02972656     -0.48494510
  H        6.91365824      1.06099733     -1.89283772
  C        5.26677965      1.07126460     -0.49860395
  C        4.56957825      2.40771686     -0.77681754
  C        5.44115584      3.54343987     -0.15616849
  H        5.34611518      3.48850233      0.93666424
  H        5.03522677      4.51560231     -0.45569465
  C        6.93369060      3.48529072     -0.51751527
  H        7.07565179      3.65567771     -1.59512551
  H        7.47563115      4.28495284      0.00000000
  C        4.63119707      0.00000000     -0.00000000
  H        5.19411914     -0.90779525      0.20963754
  C        3.17581166     -0.02957854      0.36203705
  H        2.73937583     -1.00603569      0.12483994
  C        2.38107193      1.10411346     -0.31403291
  H        2.36048955      0.84864319     -1.38376395
  C        3.14984831      2.43840449     -0.10770538
  H        3.32615859      2.50198215      0.97614328
  C        2.32183953      3.68628346     -0.49388948
  H        2.27849648      3.79172396     -1.58250585
  H        2.82983980      4.58506493     -0.12560514
  C        0.87931134      3.68183199      0.04802871
  H        0.89537114      3.73693075      1.14585434
  H        0.37541193      4.58781782     -0.30340964
  C        0.12449257      2.40604930     -0.37137842
  C        0.93566687      1.20393603      0.19497422
  H        1.00151146      1.38128480      1.27784173
  C        0.00000000      0.00000000      0.00000000
  H        0.22863304     -0.81364921      0.69066122
  H        0.09167687     -0.40110484     -1.01777561
  C       -1.41588756      0.59435955      0.23594303
  H       -2.09239852      0.32850113     -0.58512588
  H       -1.86821836      0.19413083      1.14866350
  C       -1.25471197      2.14797003      0.32738616
  H       -1.10639772      2.41314122      1.38435860
  C       -0.03607120      2.34673255     -1.90835697
  H        0.92338210      2.27446176     -2.42680444
  H       -0.63745004      1.48938689     -2.22465395
  H       -0.53518344      3.24845192     -2.27957597
  C       -2.51443279      2.90266949     -0.16614361
  H       -2.67289141      2.62186749     -1.21775994
  C       -2.38164323      4.43680905     -0.12149091
  H       -2.04739530      4.79258527      0.85935266
  H       -3.34724469      4.91061340     -0.33506443
  H       -1.66916256      4.80598904     -0.86349285
  C        4.48216399      2.60018974     -2.31583347
  H        4.16701995      3.61609136     -2.57151271
  H        5.44740239      2.43283948     -2.79980830
  H        3.77168343      1.89890931     -2.76408630
  O        3.19580428      0.07717713      1.81734170
  O        2.04966393     -0.64386163      2.37813853
  H        2.51923139     -1.27733048      2.94428896
  O        8.93638310      2.05503938     -0.44736780
  H        9.05433800      2.19323723     -1.39770823
  C       -3.79887110      2.44819239      0.58017907
  H       -4.65161670      2.96144997      0.11191067
  H       -3.95838776      1.37959831      0.39768023
  C       -3.84193993      2.72090485      2.09355183
  H       -3.06534116      2.13816987      2.60400166
  H       -3.59697181      3.77377537      2.28132376
  C       -5.21165780      2.44096067      2.74122932
  H       -5.96412323      3.07278465      2.24720194
  H       -5.17924287      2.77305446      3.78967195
  C       -5.71126625      0.98056117      2.71749867
  H       -5.74308482      0.64266239      1.67183257
  C       -4.78352612      0.03145730      3.49259195
  H       -4.70439310      0.33780433      4.54389101
  H       -5.16879553     -0.99444739      3.47408940
  H       -3.77168572      0.01007705      3.07548171
  C       -7.14370165      0.90172306      3.26976682
  H       -7.17732787      1.22796999      4.31734791
  H       -7.53078175     -0.12289807      3.22884345
  H       -7.82743391      1.54176869      2.70028096



