%Mem=256MB 
%NProc=12 

#P HF/6-31G* SCF(Conver=6) NoSymm Test 
   Pop=mk IOp(6/33=2) GFInput GFPrint 

MEP - Input generated by R.E.D.-III.x MOLECULE 

0 1 
  C        1.75838860     -1.24901054      0.05034358
  H        1.88301252     -1.20520058     -1.03859832
  C        3.14684215     -1.26352692      0.70928389
  H        3.72607503     -2.11093646      0.32956481
  H        3.00364469     -1.43757371      1.78739333
  C        3.90575600      0.03214635      0.48901394
  C        3.17390601      1.32971973      0.85403564
  C        1.74426642      1.27197513      0.23218020
  H        1.83928628      1.39023210     -0.85580833
  H        1.15963191      2.12738179      0.58755967
  C        0.96850842     -0.02444794      0.51219519
  H        0.75372152     -0.12028838      1.58683623
  H        0.00000000      0.00000000      0.00000000
  C        5.15507997      0.00000000      0.00000000
  H        5.60562852     -0.96204481     -0.23707024
  C        6.00410189      1.21096940     -0.25898226
  H        7.03676391      1.02393222      0.06172373
  C        5.46454394      2.47401428      0.43665761
  H        5.70334309      2.33655434      1.50075186
  C        3.92603325      2.57486453      0.26454022
  H        3.74585674      2.55293750     -0.82029750
  C        3.37576989      3.92393419      0.78500147
  H        3.38471895      3.93345084      1.87969538
  H        2.32434560      4.02637970      0.49253377
  C        4.14582089      5.16336130      0.28513200
  H        4.02002105      5.26198206     -0.80251463
  H        3.69186819      6.05290727      0.73296755
  C        5.65344751      5.06589617      0.59891850
  C        6.15151123      3.75251736     -0.06724584
  H        5.88359928      3.84785957     -1.12851460
  C        7.68151057      3.84190096      0.00000000
  H        8.16192831      3.22549086     -0.76486482
  H        8.05203943      3.49543503      0.97329803
  C        7.96414992      5.35641928     -0.19690347
  H        8.64334422      5.73239081      0.57778896
  H        8.45679684      5.54208117     -1.15567234
  C        6.58648187      6.10114030     -0.12231753
  H        6.19728927      6.19670425     -1.14836550
  C        5.90284637      5.09338707      2.12431537
  H        5.44018015      4.24736865      2.63917422
  H        6.97030966      5.07101356      2.36356898
  H        5.48934823      6.00473617      2.56876634
  C        6.71785740      7.54047246      0.44065581
  H        7.17121854      7.46946238      1.44133348
  C        5.36676760      8.26389615      0.58136407
  H        4.83159666      8.28328120     -0.37643742
  H        5.50379436      9.30001710      0.90474211
  H        4.71617375      7.78543660      1.31677262
  C        3.06637415      1.40631779      2.40188826
  H        2.38504521      2.20312048      2.71461758
  H        2.68681092      0.47427655      2.82731130
  H        4.04357855      1.59290108      2.85803602
  O        6.06366829      1.51116308     -1.68081112
  O        6.80547083      0.43863882     -2.32684295
  H        6.09331382     -0.01372636     -2.80861222
  O        1.05393672     -2.47346478      0.27175859
  H        0.88445364     -2.56677922      1.21977208
  C        7.68394180      8.37245932     -0.43940731
  H        8.58827703      7.78657493     -0.63879955
  H        7.21075060      8.54202370     -1.41895582
  C        8.12390091      9.72171720      0.15285501
  H        7.25519139     10.37481335      0.29319732
  H        8.54589999      9.54748027      1.15210204
  C        9.15899708     10.43289136     -0.73422446
  H        8.72901779     10.56449132     -1.73779709
  H       10.02697497      9.77006327     -0.86236116
  C        9.66722807     11.80761155     -0.24070469
  H       10.39385634     12.14767750     -0.99347042
  C        8.55313156     12.86591819     -0.18011657
  H        7.81495319     12.63272237      0.59593178
  H        8.96676979     13.85447341      0.04997369
  H        8.02138611     12.94085510     -1.13601204
  C       10.41560376     11.71638047      1.09954822
  H        9.74290616     11.44235810      1.92046672
  H       10.87088801     12.67923047      1.35822500
  H       11.21631632     10.96846324      1.05950295



