%Mem=256MB 
%NProc=12 

#P HF/6-31G* SCF(Conver=6) NoSymm Test 
   Pop=mk IOp(6/33=2) GFInput GFPrint 

MEP - Input generated by R.E.D.-III.x MOLECULE 

0 1 
  C        1.75841425     -1.24848431      0.06183304
  H        1.88340914     -1.21423250     -1.02740027
  C        3.14663748     -1.25692599      0.72128451
  H        3.72604019     -2.10780107      0.34967343
  H        3.00318661     -1.42081390      1.80092022
  C        3.90549969      0.03670898      0.48927349
  C        3.17356807      1.33757147      0.84298111
  C        1.74397068      1.27412279      0.22144133
  H        1.83888945      1.38316024     -0.86753048
  H        1.15901177      2.13221751      0.56960733
  C        0.96837443     -0.01991756      0.51264798
  H        0.75325878     -0.10632694      1.58801889
  H        0.00000000      0.00000000      0.00000000
  C        5.15464656      0.00000000     -0.00000000
  H        5.60472390     -0.96420863     -0.22897807
  C        6.00447831      1.20855481     -0.26769141
  H        7.03702129      1.02320672      0.05446969
  C        5.46541833      2.47563221      0.42065515
  H        5.70025211      2.33967001      1.48550834
  C        3.92634646      2.57741452      0.24296831
  H        3.74967274      2.54398383     -0.84215727
  C        3.36947134      3.93191812      0.74604852
  H        3.37189486      3.95518867      1.84038844
  H        2.31972797      4.02739688      0.44553678
  C        4.14122046      5.16479991      0.23292835
  H        4.01755958      5.24667921     -0.85576316
  H        3.69240074      6.06472471      0.66985352
  C        5.64405327      5.06985567      0.55923531
  C        6.15652626      3.75003506     -0.08699943
  H        5.90130091      3.83001008     -1.15204397
  C        7.68913396      3.84732057     -0.00000000
  H        8.17921892      3.24199697     -0.76768844
  H        8.04956038      3.48817481      0.97246905
  C        7.97171250      5.36766131     -0.17049582
  H        8.59859736      5.74003816      0.64613247
  H        8.51742208      5.57878085     -1.09650767
  C        6.58203474      6.08144982     -0.18793278
  H        6.23986907      6.04583997     -1.23126871
  C        5.86151908      5.09150383      2.08996213
  H        5.46640814      4.19511730      2.57503895
  H        6.91937629      5.16003537      2.35601892
  H        5.35238134      5.94780328      2.54170080
  C        6.67627356      7.59797280      0.14684804
  H        7.46521221      7.96066029     -0.53007198
  C        7.14889747      7.97096234      1.56681558
  H        6.35474428      7.85316038      2.30993607
  H        7.45515419      9.02312666      1.58685545
  H        8.00667399      7.37778985      1.89692494
  C        3.06533769      1.42856040      2.39000782
  H        2.38466643      2.22901142      2.69465025
  H        2.68436762      0.50100906      2.82390763
  H        4.04231025      1.61845039      2.84521314
  O        6.06429007      1.49963944     -1.69140792
  O        6.80045251      0.41990206     -2.33162041
  H        6.08477450     -0.03576534     -2.80504795
  O        1.05398437     -2.47095563      0.29381950
  H        0.88418022     -2.55596100      1.24255820
  C        5.40170388      8.41258964     -0.18381316
  H        4.58199857      8.07666852      0.46415408
  H        5.59269326      9.45371782      0.10985056
  C        4.90871050      8.39679071     -1.64395339
  H        4.60219241      7.38143711     -1.92182291
  H        3.99266644      8.99920768     -1.69637922
  C        5.91024689      8.89914317     -2.70177683
  H        5.43596339      8.81459945     -3.69079185
  H        6.77645271      8.22447375     -2.73067342
  C        6.42537993     10.34468552     -2.53673135
  H        6.91464544     10.42665008     -1.55527917
  C        7.48545308     10.65558067     -3.60567519
  H        7.05379833     10.59609705     -4.61310520
  H        7.89504740     11.66427247     -3.47910425
  H        8.31988439      9.94635606     -3.55953588
  C        5.29170933     11.38148361     -2.58481467
  H        4.75322113     11.32468128     -3.53985357
  H        5.68753489     12.39883452     -2.48753465
  H        4.56212372     11.23427690     -1.78195941



