%Mem=256MB 
%NProc=12 

#P HF/6-31G* SCF(Conver=6) NoSymm Test 
   Pop=mk IOp(6/33=2) GFInput GFPrint 

MEP - Input generated by R.E.D.-III.x MOLECULE 

0 1 
  C        7.50856459      2.15077237     -0.05267031
  H        7.40442513      2.06952206      1.03627161
  C        6.75676042      0.98369491     -0.71224721
  H        7.14712452      0.03353501     -0.33460647
  H        6.97914953      1.00958974     -1.79063741
  C        5.25758860      1.06157645     -0.48955973
  C        4.57548101      2.38662536     -0.85225184
  C        5.41022755      3.54843577     -0.22993680
  H        5.26094542      3.53255594      0.85827782
  H        5.01638441      4.50747831     -0.58345219
  C        6.91917673      3.48427289     -0.51234669
  H        7.11571335      3.61219938     -1.58713034
  H        7.43186954      4.30622071      0.00000000
  C        4.59841629     -0.00000000      0.00000000
  H        5.15473053     -0.90542993      0.23539898
  C        3.12047293     -0.04340314      0.26145345
  H        2.70869755     -1.00925846     -0.05763676
  C        2.36125164      1.10114237     -0.43401421
  H        2.34449898      0.82634963     -1.49806237
  C        3.12247551      2.44191754     -0.26130065
  H        3.24066011      2.57919066      0.82357960
  C        2.29745658      3.64375396     -0.77974457
  H        2.28486326      3.64373224     -1.87444847
  H        2.78943985      4.57802047     -0.48542480
  C        0.83856407      3.68055791     -0.28051424
  H        0.82460013      3.83861007      0.80731927
  H        0.34430604      4.54868345     -0.72771391
  C        0.09247042      2.36749502     -0.59607610
  C        0.91538881      1.22922575      0.06952523
  H        0.98227793      1.50419384      1.13118976
  C        0.00000000      0.00000000      0.00000000
  H        0.25015924     -0.74099857      0.76429971
  H        0.08671679     -0.49901309     -0.97365748
  C       -1.42096022      0.59581824      0.19642395
  H       -2.10830625      0.23523464     -0.57832639
  H       -1.84589326      0.28502403      1.15521715
  C       -1.28630554      2.15608041      0.12318500
  H       -1.15417853      2.53316652      1.14973414
  C       -0.06638061      2.17562236     -2.12190923
  H        0.89487199      2.10307986     -2.63740071
  H       -0.62970331      1.26894673     -2.36248978
  H       -0.60499196      3.01972937     -2.56500012
  C       -2.55819870      2.83920159     -0.44329102
  H       -2.74516499      2.42161470     -1.44451684
  C       -2.41427191      4.36561015     -0.58194453
  H       -2.10646023      4.81631654      0.36983077
  H       -3.36116148      4.82895299     -0.87528488
  H       -1.67654296      4.64570135     -1.33740016
  C        4.56870891      2.52094688     -2.39994882
  H        4.27725782      3.52862614     -2.71053237
  H        5.55536095      2.32636218     -2.82703604
  H        3.87512513      1.80794710     -2.85632173
  O        2.83874497      0.07394592      1.68347987
  O        3.33325528     -1.13111705      2.33217864
  H        4.10544025     -0.78121760      2.80680032
  O        8.91839973      2.06646683     -0.27558472
  H        9.08859299      2.15788043     -1.22365513
  C       -3.79196877      2.49823515      0.43196275
  H       -3.75833276      1.43997794      0.70770350
  H       -3.71954161      3.06056506      1.37600442
  C       -5.15113123      2.78404582     -0.22778709
  H       -5.19204695      3.82737226     -0.56326080
  H       -5.24242751      2.17531333     -1.13772429
  C       -6.36600503      2.54565257      0.68859041
  H       -7.27408856      2.86513628      0.15582953
  H       -6.27873755      3.20922387      1.56114204
  C       -6.58979331      1.10437691      1.19426376
  H       -5.69308216      0.78843859      1.74617543
  C       -7.77073903      1.06621240      2.17753498
  H       -8.70238819      1.36810710      1.68171260
  H       -7.92090305      0.05822870      2.58081772
  H       -7.60895175      1.74506024      3.02278232
  C       -6.81276845      0.10768620      0.04583465
  H       -7.68806989      0.39274733     -0.55247545
  H       -6.99028401     -0.90209768      0.43304014
  H       -5.95183323      0.05447672     -0.62840786



