%Mem=256MB 
%NProc=12 

#P HF/6-31G* SCF(Conver=6) NoSymm Test 
   Pop=mk IOp(6/33=2) GFInput GFPrint 

MEP - Input generated by R.E.D.-III.x MOLECULE 

0 1 
  C       -0.96478911      2.00037527      1.69099986
  H       -0.98235670      1.01993191      2.18260541
  C        0.38725989      2.67421626      1.97413794
  H        0.53879445      2.75641147      3.05492056
  H        0.33634444      3.70290983      1.58395132
  C        1.54814895      1.93393757      1.33568649
  C        1.42810015      1.62581011     -0.16216444
  C        0.01583494      1.01500904     -0.41983430
  H        0.00000000      0.00000000      0.00000000
  H       -0.14117202      0.90744711     -1.49849480
  C       -1.15260114      1.80771510      0.18622958
  H       -1.23916910      2.79368174     -0.29388514
  H       -2.09729543      1.28443792      0.00000000
  C        2.60956860      1.58658987      2.07988132
  H        2.61850893      1.83917301      3.13857919
  C        3.81509963      0.85622230      1.56242702
  H        4.72971647      1.28583411      1.99041843
  C        3.90346341      0.87277732      0.02560691
  H        4.20989344      1.89698536     -0.22883562
  C        2.51364572      0.58083704     -0.60199993
  H        2.19455956     -0.38382497     -0.18077578
  C        2.59508083      0.39533854     -2.13716997
  H        2.75320618      1.36338336     -2.62308170
  H        1.63317968      0.02528219     -2.51027538
  C        3.70609382     -0.56740569     -2.60370110
  H        3.47972175     -1.58607499     -2.25842896
  H        3.70348297     -0.59939436     -3.69930305
  C        5.08476220     -0.15078032     -2.05597138
  C        4.95495455     -0.11260265     -0.50597202
  H        4.60510903     -1.11347885     -0.21980027
  C        6.40287140     -0.00000000     -0.00000000
  H        6.50971715     -0.38645620      1.01740075
  H        6.73175962      1.04697653      0.01652962
  C        7.21943274     -0.82260528     -1.03803300
  H        8.05632534     -0.23393898     -1.42689569
  H        7.65866854     -1.72065958     -0.59035159
  C        6.22571626     -1.21830660     -2.17578078
  H        5.75090565     -2.15813315     -1.85581035
  C        5.50465059      1.21602618     -2.64375980
  H        4.85821401      2.02891211     -2.30247590
  H        6.52898634      1.48485752     -2.37292976
  H        5.44649758      1.20030560     -3.73615669
  C        6.92784726     -1.59050500     -3.51477943
  H        7.64891189     -2.36860556     -3.21406050
  C        7.75725329     -0.48416612     -4.19790929
  H        7.12550384      0.23104993     -4.73327529
  H        8.44578742     -0.91967149     -4.92875132
  H        8.36701172      0.07791841     -3.48476710
  C        1.56943278      2.96024757     -0.94492896
  H        1.29436489      2.83555832     -1.99642847
  H        0.92369790      3.74026905     -0.53457296
  H        2.59581413      3.33771880     -0.90226362
  O        3.79072623     -0.54131486      1.96452276
  O        3.96452653     -0.58761683      3.40859471
  H        3.07284117     -0.84787185      3.69338774
  O       -2.04827743      2.71243506      2.29390245
  H       -2.10895545      3.58793068      1.88647983
  C        5.96206872     -2.26460922     -4.51761933
  H        5.28278073     -2.92097726     -3.95959101
  H        5.32902759     -1.49957503     -4.98886491
  C        6.65450873     -3.08136542     -5.62098067
  H        7.34429092     -2.43524330     -6.17759780
  H        7.27962997     -3.85645506     -5.15678003
  C        5.69303180     -3.72073853     -6.64029719
  H        6.28962971     -4.19307773     -7.43487103
  H        5.12057148     -2.91908569     -7.12933322
  C        4.69729153     -4.77009397     -6.10131008
  H        4.08222171     -4.29571813     -5.32334903
  C        3.74866543     -5.22412764     -7.22243372
  H        4.30555298     -5.71399544     -8.03161601
  H        3.00592986     -5.93919883     -6.85059021
  H        3.20866747     -4.37511857     -7.65734713
  C        5.40420218     -5.98020198     -5.47042471
  H        6.05333747     -6.47743468     -6.20302124
  H        4.67548286     -6.71891323     -5.11772404
  H        6.02497428     -5.69624641     -4.61449316



