%Mem=256MB 
%NProc=12 

#P HF/6-31G* SCF(Conver=6) NoSymm Test 
   Pop=mk IOp(6/33=2) GFInput GFPrint 

MEP - Input generated by R.E.D.-III.x MOLECULE 

0 1 
  C       -0.96214299      2.00659974      1.68548925
  H       -0.97698092      1.02807814      2.18100601
  C        0.38947111      2.68360517      1.96279096
  H        0.54343912      2.77051510      3.04284975
  H        0.33628676      3.71062084      1.56840705
  C        1.54985301      1.94209611      1.32488178
  C        1.42687121      1.62598956     -0.17099479
  C        0.01444627      1.01347496     -0.42357388
  H        0.00000000      0.00000000      0.00000000
  H       -0.14453405      0.90170296     -1.50156582
  C       -1.15320593      1.80772827      0.18192026
  H       -1.24176213      2.79171800     -0.30189873
  H       -2.09789601      1.28292281      0.00000000
  C        2.61399407      1.60075438      2.06795563
  H        2.62548809      1.85915166      3.12522813
  C        3.81931516      0.86934795      1.55159301
  H        4.73437996      1.30377080      1.97365824
  C        3.90262923      0.87382375      0.01436930
  H        4.21027305      1.89513287     -0.25097344
  C        2.51173457      0.57853340     -0.60622192
  H        2.19343311     -0.38358319     -0.17866409
  C        2.59441458      0.38434423     -2.13896071
  H        2.75031468      1.35037162     -2.62985353
  H        1.63399417      0.00987611     -2.51160310
  C        3.70763154     -0.57767292     -2.60229229
  H        3.48733403     -1.59485398     -2.24835190
  H        3.69191066     -0.61850647     -3.69585652
  C        5.08992807     -0.15737312     -2.06069689
  C        4.95340787     -0.11527723     -0.51260776
  H        4.60391606     -1.11692906     -0.22688537
  C        6.39475974     -0.00000000     -0.00000000
  H        6.49573994     -0.36897657      1.02442371
  H        6.72889584      1.04547394     -0.00071610
  C        7.20942259     -0.84551494     -1.01679841
  H        8.07260222     -0.28162111     -1.39034613
  H        7.61044947     -1.74811104     -0.54673103
  C        6.24536404     -1.21054365     -2.19769706
  H        5.79184865     -2.18917408     -1.97398935
  C        5.52915753      1.19824946     -2.65944877
  H        4.84804300      2.01224336     -2.39792794
  H        6.52659060      1.49082770     -2.31765716
  H        5.56233372      1.14641333     -3.75277501
  C        6.99201756     -1.36358786     -3.54930902
  H        7.49984813     -0.41053783     -3.75585094
  C        6.05556539     -1.66649596     -4.73156255
  H        5.46739993     -2.57401006     -4.54487109
  H        6.62023988     -1.82366628     -5.65544472
  H        5.35635538     -0.84965040     -4.92285073
  C        1.56647921      2.95636761     -0.96081830
  H        1.29287683      2.82566055     -2.01199359
  H        0.91845378      3.73705389     -0.55541690
  H        2.59189250      3.33644496     -0.91868954
  O        3.79869016     -0.52535626      1.96359221
  O        3.97698763     -0.56118793      3.40742275
  H        3.08720014     -0.82311189      3.69658160
  O       -2.04537704      2.71925752      2.28816399
  H       -2.10891288      3.59285775      1.87712878
  C        8.07869889     -2.46240976     -3.42492659
  H        8.70399074     -2.25132496     -2.55117148
  H        7.57632333     -3.41693301     -3.20788531
  C        9.00018585     -2.67244395     -4.64344408
  H        9.68661111     -3.49518240     -4.40587556
  H        8.41276857     -3.02769246     -5.49895458
  C        9.81305464     -1.44482519     -5.09685625
  H        9.12385119     -0.65860061     -5.43391050
  H       10.39782355     -1.72783416     -5.98475570
  C       10.77881811     -0.83304146     -4.05986334
  H       10.19461724     -0.54032358     -3.17552398
  C       11.85690361     -1.82830840     -3.60194741
  H       12.45622943     -2.17226310     -4.45506969
  H       12.54020448     -1.36164252     -2.88332554
  H       11.42617042     -2.71172457     -3.11978479
  C       11.42720748      0.44097352     -4.62510898
  H       12.03168150      0.21139486     -5.51208371
  H       12.08611955      0.91377333     -3.88785046
  H       10.67085405      1.17746588     -4.92029602



