%Mem=256MB 
%NProc=12 

#P HF/6-31G* SCF(Conver=6) NoSymm Test 
   Pop=mk IOp(6/33=2) GFInput GFPrint 

MEP - Input generated by R.E.D.-III.x MOLECULE 

0 1 
  C        1.75593764     -1.24474396      0.14164414
  H        1.88464288     -1.27599380     -0.94695102
  C        3.14289097     -1.21581958      0.80445976
  H        3.72275455     -2.08638001      0.48265131
  H        2.99719738     -1.31664245      1.89140827
  C        3.89920100      0.06246982      0.49828339
  C        3.17137870      1.38231217      0.77704657
  C        1.74311532      1.28470531      0.15644782
  H        1.84127987      1.33403671     -0.93637538
  H        1.15780599      2.16047654      0.45647568
  C        0.96608862      0.00893634      0.51728455
  H        0.74591599     -0.01563581      1.59494956
  H        0.00000000      0.00000000      0.00000000
  C        5.14335525      0.00000000     -0.00000000
  H        5.58853244     -0.97090126     -0.21000733
  C        5.97303827      1.19627435     -0.36153180
  H        7.02768313      1.01965986     -0.12341200
  C        5.46763095      2.48581208      0.31373722
  H        5.69221626      2.36241700      1.38351484
  C        3.93088926      2.58241527      0.10838944
  H        3.77950406      2.47172283     -0.97545269
  C        3.35065285      3.96205833      0.49647643
  H        3.29123719      4.05692975      1.58536792
  H        2.31947701      4.03620641      0.13219840
  C        4.15027800      5.16064389     -0.04946702
  H        4.09467407      5.17419424     -1.14730967
  H        3.67199876      6.08123378      0.29869712
  C        5.63189253      5.08748061      0.36798400
  C        6.18366842      3.74515213     -0.19658687
  H        6.00093133      3.78749833     -1.27980592
  C        7.70281962      3.85948781     -0.00000000
  H        8.25650862      3.20579942     -0.67634613
  H        7.98259584      3.58142362      1.02443248
  C        7.99077150      5.36159576     -0.26741844
  H        8.61472380      5.79023452      0.52631794
  H        8.54553296      5.49249675     -1.20116794
  C        6.60732362      6.09613251     -0.33232285
  H        6.29466281      6.13837370     -1.38762000
  C        5.77522323      5.18884691      1.90480934
  H        5.31405169      4.34501361      2.42439149
  H        6.82342827      5.22379886      2.21584212
  H        5.29531103      6.09913883      2.27964545
  C        6.68977703      7.56225248      0.16819041
  H        7.07380018      7.54360029      1.19978812
  C        5.32904584      8.28134928      0.18157540
  H        4.85781358      8.24653356     -0.80880371
  H        5.44021086      9.33404853      0.45818249
  H        4.63369530      7.83720217      0.89730708
  C        3.05949652      1.56081607      2.31613819
  H        2.38634829      2.38421567      2.57233861
  H        2.66652396      0.66337790      2.80000342
  H        4.03658939      1.76607245      2.76409792
  O        5.87436293      1.23831803     -1.81692048
  O        7.11042101      1.79212635     -2.37672181
  H        7.37833830      1.04942377     -2.94146096
  O        1.04987374     -2.45055385      0.44566636
  H        0.86922729     -2.47263470      1.39594794
  C        7.70950751      8.35925866     -0.68351573
  H        8.62672284      7.77022997     -0.79609426
  H        7.30130960      8.48116282     -1.69874562
  C        8.10532949      9.73678108     -0.12620137
  H        7.22672482     10.38940274     -0.07100948
  H        8.46335394      9.61056072      0.90472479
  C        9.19201960     10.41475853     -0.97678582
  H        8.82693373     10.49733785     -2.01084378
  H       10.06947891      9.75330064     -1.01855557
  C        9.66118643     11.81434221     -0.51540899
  H       10.43367805     12.12501479     -1.23450465
  C        8.54091806     12.86613366     -0.57593775
  H        7.75514767     12.66369189      0.16101282
  H        8.93454999     13.86729675     -0.36605948
  H        8.07169955     12.89275942     -1.56650119
  C       10.32128473     11.79005981      0.87322350
  H        9.59785360     11.54864618      1.66052852
  H       10.75442934     12.76710917      1.11627117
  H       11.12626468     11.04707606      0.91954815



