%Mem=256MB 
%NProc=12 

#P HF/6-31G* SCF(Conver=6) NoSymm Test 
   Pop=mk IOp(6/33=2) GFInput GFPrint 

MEP - Input generated by R.E.D.-III.x MOLECULE 

0 1 
  C        1.75819212     -1.24930343      0.05057936
  H        1.88301915     -1.20498799     -1.03830553
  C        3.14654574     -1.26395021      0.70984258
  H        3.72596547     -2.11114720      0.32993347
  H        3.00299857     -1.43844936      1.78780270
  C        3.90531555      0.03190605      0.49026367
  C        3.17343511      1.32905477      0.85690775
  C        1.74411351      1.27177854      0.23432619
  H        1.83958453      1.39098619     -0.85352137
  H        1.15919927      2.12679047      0.59022853
  C        0.96816188     -0.02492744      0.51283126
  H        0.75254487     -0.12168575      1.58721661
  H        0.00000000      0.00000000      0.00000000
  C        5.15417778     -0.00000000     -0.00000000
  H        5.60436830     -0.96192343     -0.23820972
  C        6.00283198      1.21122988     -0.25854225
  H        7.03614985      1.02384383      0.05984220
  C        5.46466418      2.47274342      0.44039036
  H        5.70442475      2.33282462      1.50393939
  C        3.92565980      2.57521772      0.26943449
  H        3.74526172      2.55512926     -0.81540393
  C        3.37537366      3.92363806      0.79234665
  H        3.38269386      3.93024577      1.88700549
  H        2.32433743      4.02692572      0.49876039
  C        4.14662537      5.16431631      0.29688493
  H        4.01973419      5.26799366     -0.79016876
  H        3.69602360      6.05330324      0.74984941
  C        5.65354024      5.06271276      0.60975827
  C        6.15118712      3.75217848     -0.06128450
  H        5.87934224      3.85070727     -1.12119755
  C        7.68275509      3.84086902      0.00000000
  H        8.15727032      3.24109500     -0.78158140
  H        8.05940853      3.47163920      0.96255218
  C        7.96738819      5.36021298     -0.16141259
  H        8.61995428      5.72057710      0.64264954
  H        8.48979736      5.57258914     -1.09937267
  C        6.58766057      6.09625290     -0.11068866
  H        6.20609748      6.17277403     -1.13938457
  C        5.90037044      5.08835914      2.13512646
  H        5.43087329      4.24594977      2.64965921
  H        6.96701375      5.05909051      2.37729825
  H        5.49078108      6.00290409      2.57732068
  C        6.70493029      7.53675119      0.44605042
  H        7.09267157      7.46083728      1.47253701
  C        5.36077441      8.28563678      0.52088857
  H        4.82383896      8.25937844     -0.43394298
  H        5.52330498      9.33840219      0.78092227
  H        4.69861978      7.86323699      1.28106123
  C        3.06522968      1.40365747      2.40483255
  H        2.38254092      2.19904565      2.71805550
  H        2.68696601      0.47061048      2.82918528
  H        4.04195725      1.59120499      2.86157941
  O        6.05955730      1.51409574     -1.67997396
  O        6.79901067      0.44229003     -2.32971325
  H        6.08487787     -0.01079752     -2.80788843
  O        1.05381115     -2.47388787      0.27130789
  H        0.88449821     -2.56786855      1.21928704
  C        7.75120795      8.38175757     -0.32928039
  H        7.83927961      9.35062750      0.18310981
  H        8.73753403      7.90930204     -0.24141872
  C        7.46197562      8.64271858     -1.81711485
  H        7.40648288      7.68853079     -2.35507713
  H        6.47876350      9.11659666     -1.92419245
  C        8.53638357      9.53450190     -2.46122417
  H        9.51795445      9.05869462     -2.32134169
  H        8.58034121     10.48458986     -1.90906374
  C        8.36282627      9.85426192     -3.96433368
  H        9.21212912     10.49918938     -4.23475096
  C        8.44883196      8.60089916     -4.85116984
  H        7.59844566      7.92915426     -4.68672809
  H        8.44821862      8.87371999     -5.91270320
  H        9.36594051      8.03379324     -4.65286629
  C        7.08058969     10.65098183     -4.25712591
  H        6.18146637     10.05152257     -4.07357692
  H        7.05109021     10.97076782     -5.30504789
  H        7.01712900     11.54944639     -3.63187785



