%Mem=256MB 
%NProc=12 

#P HF/6-31G* SCF(Conver=6) NoSymm Test 
   Pop=mk IOp(6/33=2) GFInput GFPrint 

MEP - Input generated by R.E.D.-III.x MOLECULE 

0 1 
  C        1.01491764     -0.88520360     -1.68548925
  H        1.14640593      0.08455695     -2.18100601
  C        2.25024599     -1.75650199     -1.96279096
  H        2.38950518     -1.86543482     -3.04284975
  H        2.04425506     -2.76405224     -1.56840705
  C        3.50836805     -1.19663527     -1.32488178
  C        3.43398208     -0.86570537      0.17099479
  C        2.12889222     -0.04909113      0.42357388
  H        2.26598869      0.95517215      0.00000000
  H        1.98839055      0.08517353      1.50156582
  C        0.85570313     -0.66002445     -0.18192026
  H        0.62116385     -1.61974802      0.30189873
  H        0.00000000      0.00000000      0.00000000
  C        4.61155674     -1.01807140     -2.06795563
  H        4.58432555     -1.27528673     -3.12522813
  C        5.91260484     -0.47490645     -1.55159301
  H        6.75251530     -1.04113716     -1.97365824
  C        5.99431573     -0.49177649     -0.01436930
  H        6.14595746     -1.54758037      0.25097344
  C        4.66313148      0.00795628      0.60622192
  H        4.49211021      1.00682357      0.17866409
  C        4.77388959      0.18761723      2.13896071
  H        4.78374723     -0.79085944      2.62985353
  H        3.88017702      0.70134047      2.51160310
  C        6.01831267      0.97256323      2.60229229
  H        5.95242077      2.01123862      2.24835190
  H        6.00886737      1.01528690      3.69585652
  C        7.32232283      0.35050769      2.06069689
  C        7.18104639      0.32927579      0.51260776
  H        6.98508997      1.37189364      0.22688537
  C        8.58900999      0.00000000      0.00000000
  H        8.74397063      0.34975406     -1.02442371
  H        8.76323735     -1.08365471      0.00071610
  C        9.52082652      0.71434517      1.01679841
  H       10.29009507      0.02784591      1.39034613
  H       10.05217349      1.54691509      0.54673103
  C        8.62210668      1.21927832      2.19769706
  H        8.31985498      2.25467082      1.97398935
  C        7.55413831     -1.05551389      2.65944877
  H        6.75908014     -1.75863947      2.39792794
  H        8.49668005     -1.49379443      2.31765716
  H        7.59468498     -1.00921473      3.75277501
  C        9.38324390      1.25907953      3.54930902
  H        9.74302234      0.24086750      3.75585094
  C        8.50254192      1.69846544      4.73156255
  H        8.05652820      2.68365183      4.54487109
  H        9.08435791      1.76952831      5.65544472
  H        7.68916531      0.99522308      4.92285073
  C        3.37330807     -2.20201178      0.96081830
  H        3.12229850     -2.03190361      2.01199359
  H        2.61594289     -2.87714584      0.55541690
  H        4.33044658     -2.73098918      0.91868954
  O        6.10053532      0.90723224     -1.96359221
  O        6.28218470      0.91603001     -3.40742275
  H        5.44150217      1.30792135     -3.69658160
  O       -0.16261258     -1.42806611     -2.28816399
  H       -0.35592352     -2.28237580     -1.87712878
  C       10.62186327      2.18325913      3.42492659
  H       11.20861109      1.88114379      2.55117148
  H       10.26769870      3.20211304      3.20788531
  C       11.56438507      2.25329647      4.64344408
  H       12.36600055      2.96427525      4.40587556
  H       11.03662037      2.69230101      5.49895458
  C       12.18476795      0.91803299      5.09685625
  H       11.38585944      0.24357342      5.43391050
  H       12.80524920      1.11052134      5.98475570
  C       13.04831629      0.16885833      4.05986334
  H       12.42694651     -0.03331486      3.17552398
  C       14.26296847      0.99192863      3.60194741
  H       14.90694668      1.24250467      4.45506969
  H       14.86889893      0.42843470      2.88332554
  H       13.96902144      1.92977209      3.11978479
  C       13.49913482     -1.18771293      4.62510898
  H       14.13111936     -1.05099881      5.51208371
  H       14.08003387     -1.75362907      3.88785046
  H       12.64125805     -1.80296813      4.92029602



