%Mem=256MB 
%NProc=12 

#P HF/6-31G* SCF(Conver=6) NoSymm Test 
   Pop=mk IOp(6/33=2) GFInput GFPrint 

MEP - Input generated by R.E.D.-III.x MOLECULE 

0 1 
  C       -0.96265707      2.00114963      1.69146328
  H       -0.98141258      1.02059935      2.18281426
  C        0.39006885      2.67342716      1.97504280
  H        0.54149310      2.75522963      3.05586513
  H        0.34035850      3.70226241      1.58504256
  C        1.55029079      1.93204696      1.33670182
  C        1.43017826      1.62414744     -0.16119215
  C        0.01723313      1.01515685     -0.41943070
  H        0.00000000      0.00000000      0.00000000
  H       -0.13966824      0.90823721     -1.49817452
  C       -1.15035402      1.80911673      0.18660435
  H       -1.23557758      2.79529316     -0.29329444
  H       -2.09563916      1.28704075      0.00000000
  C        2.61143398      1.58380789      2.08089595
  H        2.62052403      1.83632865      3.13960274
  C        3.81665718      0.85287622      1.56347442
  H        4.73143512      1.28223867      1.99135469
  C        3.90484816      0.86937518      0.02663861
  H        4.21134870      1.89357919     -0.22750823
  C        2.51476150      0.57797498     -0.60048585
  H        2.19501027     -0.38616320     -0.17855709
  C        2.59559681      0.39109647     -2.13544623
  H        2.75479622      1.35825234     -2.62261514
  H        1.63330691      0.02145567     -2.50793973
  C        3.70558364     -0.57375493     -2.60019295
  H        3.47721545     -1.59052402     -2.25154428
  H        3.70105943     -0.60761244     -3.69602751
  C        5.08548771     -0.15701178     -2.05526312
  C        4.95654408     -0.11602285     -0.50475453
  H        4.60792328     -1.11656208     -0.21617642
  C        6.40470297     -0.00000000      0.00000000
  H        6.51290421     -0.38573712      1.01755685
  H        6.73086111      1.04784415      0.01599470
  C        7.22296291     -0.82078995     -1.03786503
  H        8.05507028     -0.22845761     -1.43153368
  H        7.66878887     -1.71499657     -0.58898600
  C        6.22720913     -1.22614999     -2.17170531
  H        5.75687018     -2.15978717     -1.83551462
  C        5.50216455      1.21106520     -2.64277714
  H        4.86099228      2.02375553     -2.29128482
  H        6.52947858      1.47709662     -2.38115086
  H        5.43272290      1.20085422     -3.73447620
  C        6.94174195     -1.59884536     -3.50316388
  H        7.69296616     -2.34311388     -3.19108538
  C        7.73053247     -0.47513585     -4.20620472
  H        7.07368904      0.21029878     -4.74979509
  H        8.41783303     -0.91258648     -4.93929860
  H        8.33218187      0.11882801     -3.51228410
  C        1.57346786      2.95841593     -0.94393693
  H        1.29914768      2.83394305     -1.99566098
  H        0.92814024      3.73906444     -0.53415515
  H        2.60011368      3.33503158     -0.90039418
  O        3.79175714     -0.54462015      1.96565683
  O        3.96452689     -0.59084264      3.40985226
  H        3.07252330     -0.85066859      3.69404157
  O       -2.04546404      2.71427161      2.29429946
  H       -2.10516471      3.58988144      1.88697704
  C        6.04616483     -2.31235733     -4.54560515
  H        5.23595383     -1.64097670     -4.86076422
  H        6.66119370     -2.47163286     -5.44099532
  C        5.45243860     -3.66137773     -4.11156203
  H        6.26630733     -4.32931674     -3.79776242
  H        4.82306985     -3.52263760     -3.22490706
  C        4.59033197     -4.35116592     -5.18612408
  H        3.75799502     -3.68150937     -5.44723399
  H        4.12945658     -5.24593721     -4.74190171
  C        5.29946495     -4.77631305     -6.48986730
  H        5.74225300     -3.88200294     -6.95090401
  C        6.42996972     -5.78714912     -6.24034001
  H        6.04229106     -6.69312649     -5.75636951
  H        6.89924175     -6.08984307     -7.18336392
  H        7.21655487     -5.37775831     -5.59824703
  C        4.27692926     -5.34681732     -7.48588579
  H        3.80156181     -6.25080328     -7.08374984
  H        4.75353378     -5.61684552     -8.43518255
  H        3.48335755     -4.62249402     -7.70296009



