%Mem=256MB 
%NProc=12 

#P HF/6-31G* SCF(Conver=6) NoSymm Test 
   Pop=mk IOp(6/33=2) GFInput GFPrint 

MEP - Input generated by R.E.D.-III.x MOLECULE 

0 1 
  C       -0.96294559      2.00366533      1.68912885
  H       -0.98025533      1.02410440      2.18248103
  C        0.38924832      2.67794463      1.97027363
  H        0.54142389      2.76226712      3.05079410
  H        0.33842971      3.70584090      1.57799423
  C        1.54950928      1.93578870      1.33284262
  C        1.42898437      1.62491823     -0.16441533
  C        0.01617148      1.01458282     -0.42085580
  H        0.00000000      0.00000000      0.00000000
  H       -0.14140045      0.90601472     -1.49935028
  C       -1.15161481      1.80851282      0.18480205
  H       -1.23837273      2.79376822     -0.29676172
  H       -2.09652748      1.28511509      0.00000000
  C        2.61081873      1.58921113      2.07757803
  H        2.62014892      1.84412045      3.13570164
  C        3.81565680      0.85682655      1.56136221
  H        4.73067338      1.28611995      1.98881801
  C        3.90392125      0.87104091      0.02454591
  H        4.21056909      1.89480280     -0.23142326
  C        2.51392694      0.57851787     -0.60239203
  H        2.19438176     -0.38522276     -0.17947451
  C        2.59537001      0.39004897     -2.13719646
  H        2.75409403      1.35706526     -2.62495304
  H        1.63321848      0.01987245     -2.50954795
  C        3.70597583     -0.57401155     -2.60216047
  H        3.47948069     -1.59232631     -2.25599805
  H        3.70322669     -0.60707896     -3.69780716
  C        5.08487706     -0.15674067     -2.05552429
  C        4.95534922     -0.11515030     -0.50543488
  H        4.60609865     -1.11546632     -0.21673465
  C        6.40331659     -0.00000000      0.00000000
  H        6.51098384     -0.38578520      1.01758568
  H        6.73042000      1.04754603      0.01609530
  C        7.22088017     -0.82185937     -1.03776585
  H        8.05419083     -0.23068156     -1.43084163
  H        7.66511030     -1.71694456     -0.58913447
  C        6.22619619     -1.22433688     -2.17219753
  H        5.75256459     -2.16283515     -1.84674762
  C        5.50437684      1.20945232     -2.64532764
  H        4.85810847      2.02242965     -2.30397751
  H        6.52886002      1.47892623     -2.37575996
  H        5.44518693      1.19307865     -3.73761526
  C        6.93061913     -1.60322898     -3.50765097
  H        7.66298521     -2.36760121     -3.19907822
  C        7.74306181     -0.49547071     -4.20807388
  H        7.10021603      0.20228778     -4.75340056
  H        8.43573591     -0.93372891     -4.93353193
  H        8.34565422      0.08639618     -3.50472604
  C        1.57076383      2.95786558     -0.94962233
  H        1.29785375      2.83080030     -2.00138413
  H        0.92341012      3.73804142     -0.54222182
  H        2.59665937      3.33645031     -0.90564096
  O        3.78969037     -0.54017284      1.96526413
  O        3.95896793     -0.58491998      3.40983570
  H        3.06537389     -0.84120344      3.69231031
  O       -2.04619696      2.71668066      2.29136890
  H       -2.10822551      3.59090404      1.88142693
  C        5.97503138     -2.30389019     -4.50046804
  H        5.33736031     -3.00455521     -3.94287703
  H        5.29912681     -1.55910396     -4.93920624
  C        6.68090766     -3.08284777     -5.62321889
  H        7.22108099     -2.39225860     -6.28182561
  H        7.44798234     -3.72852377     -5.17226134
  C        5.74537056     -3.97269219     -6.46209209
  H        5.27236539     -4.70760561     -5.79466708
  H        6.35455310     -4.55424456     -7.16997156
  C        4.63526455     -3.25554042     -7.25961531
  H        4.01442663     -2.68847302     -6.55113894
  C        5.19943869     -2.26487885     -8.29041070
  H        5.84833610     -2.77995899     -9.01075168
  H        4.39176989     -1.78577539     -8.85554749
  H        5.78868014     -1.47053157     -7.82086062
  C        3.72465781     -4.28659652     -7.94555351
  H        4.28941940     -4.88488558     -8.67215425
  H        2.90443007     -3.79816785     -8.48404888
  H        3.28384128     -4.97728844     -7.21750815



