%Mem=256MB 
%NProc=12 

#P HF/6-31G* SCF(Conver=6) NoSymm Test 
   Pop=mk IOp(6/33=2) GFInput GFPrint 

MEP - Input generated by R.E.D.-III.x MOLECULE 

0 1 
  C       -0.96518701      2.00389674      1.68672964
  H       -0.98022427      1.02502987      2.18154352
  C        0.38624372      2.68086470      1.96526223
  H        0.53968726      2.76677055      3.04548242
  H        0.33290418      3.70820710      1.57179151
  C        1.54709473      1.94044419      1.32696070
  C        1.42486523      1.62769508     -0.16968906
  C        0.01316068      1.01372632     -0.42299010
  H        0.00000000      0.00000000      0.00000000
  H       -0.14557807      0.90247424     -1.50104918
  C       -1.15547170      1.80624237      0.18284897
  H       -1.24451377      2.79065165     -0.30005301
  H       -2.09966064      1.28087322      0.00000000
  C        2.61046898      1.59682465      2.07009404
  H        2.62121737      1.85253532      3.12802102
  C        3.81609646      0.86673805      1.55239162
  H        4.73096151      1.29913948      1.97695230
  C        3.90115724      0.87723531      0.01542019
  H        4.20828352      1.89984968     -0.24548358
  C        2.51096273      0.58286532     -0.60800581
  H        2.19364227     -0.38128686     -0.18434060
  C        2.59322822      0.39456551     -2.14201216
  H        2.74593953      1.36283076     -2.62939246
  H        1.63330184      0.01910896     -2.51495768
  C        3.70873828     -0.56247195     -2.60995229
  H        3.48955479     -1.58243787     -2.26334770
  H        3.69727954     -0.59559023     -3.70414598
  C        5.08830153     -0.14216405     -2.06327897
  C        4.95236515     -0.10931521     -0.51538017
  H        4.60083539     -1.11201677     -0.23600736
  C        6.39447717     -0.00000000     -0.00000000
  H        6.49472312     -0.39062083      1.01644278
  H        6.72528430      1.04628196      0.02316940
  C        7.21551356     -0.81868720     -1.03495749
  H        8.05812385     -0.22930158     -1.41562638
  H        7.64821254     -1.71667636     -0.58304805
  C        6.24411188     -1.19342603     -2.20277520
  H        5.78841729     -2.16586068     -1.96599039
  C        5.52378934      1.21675810     -2.65672460
  H        4.83870854      2.02716952     -2.39466252
  H        6.51922027      1.51301768     -2.31220772
  H        5.55869013      1.16772658     -3.75033377
  C        6.97804980     -1.34271459     -3.55858793
  H        7.43789337     -0.37059528     -3.78927358
  C        6.04734393     -1.69715560     -4.73373135
  H        5.42342219     -2.57027796     -4.51230891
  H        6.63437028     -1.92754783     -5.63077934
  H        5.37790677     -0.87179367     -4.98905194
  C        1.56295932      2.95992393     -0.95680753
  H        1.28540477      2.83200729     -2.00726613
  H        0.91748313      3.74048817     -0.54718707
  H        2.58907434      3.33852359     -0.91754405
  O        3.79461407     -0.52944793      1.95926478
  O        3.97424224     -0.57054381      3.40281928
  H        3.08475885     -0.83360472      3.69185306
  O       -2.04877979      2.71603424      2.28935992
  H       -2.11253748      3.58967239      1.87844212
  C        8.15869121     -2.34939101     -3.48400234
  H        8.68440208     -2.30262901     -4.44678717
  H        8.88219343     -2.00683125     -2.73317280
  C        7.79172503     -3.81146411     -3.17885147
  H        7.23232715     -3.85855237     -2.23599453
  H        7.11226457     -4.19765481     -3.94841441
  C        9.00805126     -4.74752762     -3.04356796
  H        8.65405909     -5.73654255     -2.71649418
  H        9.64789591     -4.37215724     -2.23176869
  C        9.88244824     -4.94425178     -4.30047889
  H       10.25430022     -3.96051907     -4.62073798
  C       11.10701611     -5.81004932     -3.96305383
  H       10.79971373     -6.81278228     -3.63901419
  H       11.76274746     -5.92894046     -4.83322313
  H       11.69941426     -5.36652666     -3.15450039
  C        9.09712266     -5.55575715     -5.47164861
  H        8.68365183     -6.53424220     -5.19415150
  H        9.74585738     -5.70487776     -6.34235790
  H        8.26367677     -4.91998980     -5.78744905



