%Mem=256MB 
%NProc=12 

#P HF/6-31G* SCF(Conver=6) NoSymm Test 
   Pop=mk IOp(6/33=2) GFInput GFPrint 

MEP - Input generated by R.E.D.-III.x MOLECULE 

0 1 
  C        1.75610334     -1.24477215      0.14062890
  H        1.88423871     -1.27592931     -0.94803016
  C        3.14330516     -1.21596540      0.80294597
  H        3.72297042     -2.08656477      0.48088425
  H        2.99776651     -1.31697829      1.88992403
  C        3.89989997      0.06229557      0.49706475
  C        3.17183948      1.38212513      0.77527163
  C        1.74340426      1.28446496      0.15524353
  H        1.84110429      1.33352378     -0.93765198
  H        1.15842886      2.16042232      0.45533134
  C        0.96639914      0.00890104      0.51669897
  H        0.74691555     -0.01558903      1.59449528
  H        0.00000000      0.00000000      0.00000000
  C        5.14458758      0.00000000      0.00000000
  H        5.59008166     -0.97081322     -0.20970836
  C        5.97415080      1.19655142     -0.36109489
  H        7.02887310      1.02058007     -0.12282950
  C        5.46794050      2.48596497      0.31373770
  H        5.69140194      2.36322780      1.38381527
  C        3.93130466      2.58168307      0.10566671
  H        3.78216412      2.46834670     -0.97820041
  C        3.34739019      3.96152243      0.48896064
  H        3.28140603      4.05749344      1.57736325
  H        2.31818422      4.03369468      0.11878728
  C        4.14834328      5.16077439     -0.05403992
  H        4.09455014      5.17585300     -1.15195663
  H        3.67104339      6.08188173      0.29535153
  C        5.62828054      5.08657402      0.36693994
  C        6.18360855      3.74547139     -0.19612204
  H        6.00068418      3.78702305     -1.27927654
  C        7.70392596      3.86132375     -0.00000000
  H        8.25650495      3.22077188     -0.68967430
  H        7.98717360      3.56437344      1.01824309
  C        7.99037606      5.36983931     -0.23736682
  H        8.58297359      5.78843845      0.58485901
  H        8.57600731      5.52592914     -1.14886952
  C        6.60600096      6.09210104     -0.33303429
  H        6.30429495      6.11043361     -1.39045783
  C        5.76412316      5.19157315      1.90381818
  H        5.29185385      4.35417173      2.42375876
  H        6.81051954      5.21823410      2.22181744
  H        5.28901066      6.10767391      2.27148527
  C        6.67019048      7.56103860      0.15512882
  H        6.98265110      7.54215089      1.20952147
  C        5.31948333      8.29883680      0.09338256
  H        4.85197494      8.21529348     -0.89407855
  H        5.45628514      9.36581575      0.30644480
  H        4.60821620      7.91105021      0.82699989
  C        3.06036621      1.56118077      2.31436199
  H        2.38668200      2.38411290      2.57052304
  H        2.66812649      0.66359134      2.79854692
  H        4.03741806      1.76714339      2.76202185
  O        5.87559403      1.23854392     -1.81655081
  O        7.11091508      1.79412170     -2.37627980
  H        7.37928062      1.05230854     -2.94196179
  O        1.05016908     -2.45059923      0.44486278
  H        0.86991551     -2.47280544      1.39521922
  C        7.76405328      8.37695088     -0.58520242
  H        7.81262988      9.36942766     -0.11445055
  H        8.74395080      7.91621911     -0.40818941
  C        7.57659638      8.56508403     -2.09966712
  H        7.54623655      7.58573166     -2.59165821
  H        6.60782574      9.04225184     -2.30117674
  C        8.68946130      9.42171618     -2.72282560
  H        9.65992983      8.92375592     -2.57320457
  H        8.74891032     10.37134218     -2.17165558
  C        8.52047843      9.74032504     -4.22238105
  H        7.53007560     10.20340919     -4.35352943
  C        9.57681102     10.75898721     -4.67947325
  H       10.58878455     10.34875797     -4.56781074
  H        9.44225148     11.02648951     -5.73380809
  H        9.52494917     11.68133254     -4.08956739
  C        8.57204618      8.48157310     -5.10355701
  H        9.53415083      7.96556309     -4.98729894
  H        8.46119322      8.74065429     -6.16275059
  H        7.77908512      7.76958751     -4.85423765



